# CIF file generated by openbabel 3.1.0, see https://openbabel.org
data_I
_chemical_name_common ''
_cell_length_a 13.105
_cell_length_b 13.105
_cell_length_c 23.0122
_cell_angle_alpha 90
_cell_angle_beta 90
_cell_angle_gamma 120
loop_
    _atom_site_label
    _atom_site_type_symbol
    _atom_site_fract_x
    _atom_site_fract_y
    _atom_site_fract_z
    _atom_site_occupancy
    C0       C        0.10070    0.01191    0.00000    1.000
    C1       C        0.01731    0.89435    0.00000    1.000
    C2       C        0.89952    0.87419    0.00000    1.000
    C3       C        0.89524    0.97674    0.00000    1.000
    S4       S        0.03597    0.10004    0.00000    1.000
    H5       H        0.19524    0.05192    0.00000    1.000
    H6       H        0.03878    0.82473    0.00000    1.000
    H7       H        0.82186    0.78759    0.00000    1.000
    H8       H        0.81889    0.98742    0.00000    1.000
