# CIF file generated by openbabel 3.1.0, see https://openbabel.org
data_I
_chemical_name_common ''
_cell_length_a 13.105
_cell_length_b 13.105
_cell_length_c 23.0122
_cell_angle_alpha 90
_cell_angle_beta 90
_cell_angle_gamma 120
loop_
    _atom_site_label
    _atom_site_type_symbol
    _atom_site_fract_x
    _atom_site_fract_y
    _atom_site_fract_z
    _atom_site_occupancy
    C0       C        0.61678    0.66766    0.50166    1.000
    C1       C        0.55868    0.54932    0.50193    1.000
    C2       C        0.43087    0.47561    0.50237    1.000
    C3       C        0.37280    0.35724    0.50251    1.000
    H4       H        0.71196    0.71861    0.50127    1.000
    H5       H        0.57024    0.71664    0.50175    1.000
    H6       H        0.60846    0.50330    0.50178    1.000
    H7       H        0.38095    0.52149    0.50261    1.000
    H8       H        0.41923    0.30816    0.50232    1.000
    H9       H        0.27760    0.30631    0.50288    1.000
