# CIF file generated by openbabel 3.1.0, see https://openbabel.org
data_I
_chemical_name_common ''
_cell_length_a 13.105
_cell_length_b 13.105
_cell_length_c 23.0122
_cell_angle_alpha 90
_cell_angle_beta 90
_cell_angle_gamma 120
loop_
    _atom_site_label
    _atom_site_type_symbol
    _atom_site_fract_x
    _atom_site_fract_y
    _atom_site_fract_z
    _atom_site_occupancy
    Mo0      Mo       0.16602    0.08095    0.05642    1.000
    S1       S        0.08256    0.16409    0.98742    1.000
    S2       S        0.08287    0.16448    0.12535    1.000
    Mo3      Mo       0.41609    0.08101    0.05637    1.000
    S4       S        0.33250    0.16396    0.98729    1.000
    S5       S        0.33298    0.16474    0.12530    1.000
    Mo6      Mo       0.66605    0.08100    0.05642    1.000
    S7       S        0.58261    0.16403    0.98730    1.000
    S8       S        0.58287    0.16475    0.12532    1.000
    Mo9      Mo       0.91603    0.08095    0.05648    1.000
    S10      S        0.83267    0.16415    0.98745    1.000
    S11      S        0.83273    0.16446    0.12538    1.000
    Mo12     Mo       0.16595    0.33094    0.05619    1.000
    S13      S        0.08270    0.41448    0.98733    1.000
    S14      S        0.08261    0.41415    0.12530    1.000
    Mo15     Mo       0.41591    0.33103    0.05594    1.000
    S16      S        0.33253    0.41453    0.98716    1.000
    S17      S        0.33255    0.41403    0.12511    1.000
    Mo18     Mo       0.66602    0.33103    0.05599    1.000
    S19      S        0.58268    0.41440    0.98692    1.000
    S20      S        0.58246    0.41417    0.12444    1.000
    Mo21     Mo       0.91599    0.33095    0.05625    1.000
    S22      S        0.83293    0.41450    0.98722    1.000
    S23      S        0.83245    0.41414    0.12516    1.000
    Mo24     Mo       0.16605    0.58098    0.05647    1.000
    S25      S        0.08284    0.66441    0.98752    1.000
    S26      S        0.08262    0.66421    0.12545    1.000
    Mo27     Mo       0.41600    0.58092    0.05639    1.000
    S28      S        0.33272    0.66439    0.98753    1.000
    S29      S        0.33273    0.66417    0.12548    1.000
    Mo30     Mo       0.66596    0.58094    0.05611    1.000
    S31      S        0.58263    0.66447    0.98735    1.000
    S32      S        0.58272    0.66413    0.12537    1.000
    Mo33     Mo       0.91605    0.58094    0.05638    1.000
    S34      S        0.83294    0.66448    0.98739    1.000
    S35      S        0.83241    0.66400    0.12540    1.000
    Mo36     Mo       0.16600    0.83098    0.05654    1.000
    S37      S        0.08266    0.91422    0.98752    1.000
    S38      S        0.08263    0.91435    0.12547    1.000
    Mo39     Mo       0.41602    0.83097    0.05654    1.000
    S40      S        0.33262    0.91418    0.98755    1.000
    S41      S        0.33277    0.91448    0.12546    1.000
    Mo42     Mo       0.66597    0.83095    0.05642    1.000
    S43      S        0.58257    0.91427    0.98751    1.000
    S44      S        0.58277    0.91436    0.12546    1.000
    Mo45     Mo       0.91599    0.83094    0.05648    1.000
    S46      S        0.83269    0.91430    0.98752    1.000
    S47      S        0.83260    0.91421    0.12544    1.000
    C48      C        0.70918    0.40423    0.26969    1.000
    C49      C        0.59678    0.38012    0.27245    1.000
    C50      C        0.56030    0.46841    0.27238    1.000
    C51      C        0.44732    0.44286    0.27239    1.000
    H52      H        0.73127    0.33493    0.26943    1.000
    H53      H        0.78211    0.49411    0.26748    1.000
    H54      H        0.52632    0.28860    0.27399    1.000
    H55      H        0.63029    0.56019    0.27157    1.000
    H56      H        0.37526    0.35242    0.27282    1.000
    H57      H        0.42382    0.51115    0.27188    1.000
