# CIF file generated by openbabel 3.1.0, see https://openbabel.org
data_I
_chemical_name_common ''
_cell_length_a 13.105
_cell_length_b 13.105
_cell_length_c 23.0122
_cell_angle_alpha 90
_cell_angle_beta 90
_cell_angle_gamma 120
loop_
    _atom_site_label
    _atom_site_type_symbol
    _atom_site_fract_x
    _atom_site_fract_y
    _atom_site_fract_z
    _atom_site_occupancy
    Mo0      Mo       0.16796    0.08438    0.05691    1.000
    S1       S        0.08450    0.16760    0.98797    1.000
    S2       S        0.08464    0.16781    0.12590    1.000
    Mo3      Mo       0.41800    0.08437    0.05679    1.000
    S4       S        0.33442    0.16750    0.98783    1.000
    S5       S        0.33471    0.16780    0.12575    1.000
    Mo6      Mo       0.66803    0.08441    0.05683    1.000
    S7       S        0.58459    0.16758    0.98783    1.000
    S8       S        0.58467    0.16776    0.12579    1.000
    Mo9      Mo       0.91796    0.08436    0.05695    1.000
    S10      S        0.83470    0.16766    0.98791    1.000
    S11      S        0.83463    0.16785    0.12584    1.000
    Mo12     Mo       0.16802    0.33441    0.05680    1.000
    S13      S        0.08480    0.41783    0.98786    1.000
    S14      S        0.08475    0.41778    0.12578    1.000
    Mo15     Mo       0.41792    0.33442    0.05663    1.000
    S16      S        0.33456    0.41774    0.98773    1.000
    S17      S        0.33475    0.41782    0.12566    1.000
    Mo18     Mo       0.66798    0.33440    0.05669    1.000
    S19      S        0.58461    0.41760    0.98751    1.000
    S20      S        0.58475    0.41819    0.12513    1.000
    Mo21     Mo       0.91806    0.33441    0.05677    1.000
    S22      S        0.83480    0.41776    0.98779    1.000
    S23      S        0.83468    0.41770    0.12570    1.000
    Mo24     Mo       0.16823    0.58449    0.05686    1.000
    S25      S        0.08498    0.66787    0.98792    1.000
    S26      S        0.08479    0.66762    0.12584    1.000
    Mo27     Mo       0.41811    0.58441    0.05672    1.000
    S28      S        0.33487    0.66789    0.98788    1.000
    S29      S        0.33490    0.66767    0.12581    1.000
    Mo30     Mo       0.66817    0.58446    0.05645    1.000
    S31      S        0.58482    0.66799    0.98776    1.000
    S32      S        0.58483    0.66752    0.12574    1.000
    Mo33     Mo       0.91822    0.58440    0.05679    1.000
    S34      S        0.83519    0.66799    0.98780    1.000
    S35      S        0.83463    0.66751    0.12576    1.000
    Mo36     Mo       0.16812    0.83436    0.05697    1.000
    S37      S        0.08477    0.91770    0.98802    1.000
    S38      S        0.08478    0.91773    0.12593    1.000
    Mo39     Mo       0.41817    0.83440    0.05692    1.000
    S40      S        0.33470    0.91761    0.98796    1.000
    S41      S        0.33485    0.91780    0.12588    1.000
    Mo42     Mo       0.66815    0.83441    0.05690    1.000
    S43      S        0.58479    0.91770    0.98795    1.000
    S44      S        0.58483    0.91778    0.12585    1.000
    Mo45     Mo       0.91814    0.83442    0.05694    1.000
    S46      S        0.83480    0.91775    0.98799    1.000
    S47      S        0.83472    0.91767    0.12589    1.000
    C48      C        0.67805    0.36712    0.26563    1.000
    C49      C        0.55980    0.30977    0.26940    1.000
    C50      C        0.48857    0.36658    0.27013    1.000
    C51      C        0.37016    0.30770    0.27258    1.000
    H52      H        0.72667    0.32038    0.26478    1.000
    H53      H        0.72930    0.46253    0.26330    1.000
    H54      H        0.51171    0.21396    0.27156    1.000
    H55      H        0.53595    0.46241    0.26823    1.000
    H56      H        0.32046    0.21220    0.27435    1.000
    H57      H        0.31998    0.35283    0.27301    1.000
