# CIF file generated by openbabel 3.1.0, see https://openbabel.org
data_I
_chemical_name_common ''
_cell_length_a 13.105
_cell_length_b 13.105
_cell_length_c 23.0122
_cell_angle_alpha 90
_cell_angle_beta 90
_cell_angle_gamma 120
loop_
    _atom_site_label
    _atom_site_type_symbol
    _atom_site_fract_x
    _atom_site_fract_y
    _atom_site_fract_z
    _atom_site_occupancy
    Mo0      Mo       0.16650    0.08324    0.06540    1.000
    S1       S        0.08321    0.16659    0.99645    1.000
    S2       S        0.08336    0.16670    0.13445    1.000
    Mo3      Mo       0.41675    0.08323    0.06539    1.000
    S4       S        0.33334    0.16667    0.99649    1.000
    S5       S        0.33317    0.16628    0.13422    1.000
    Mo6      Mo       0.66667    0.08336    0.06549    1.000
    S7       S        0.58341    0.16666    0.99647    1.000
    S8       S        0.58333    0.16668    0.13445    1.000
    Mo9      Mo       0.91668    0.08334    0.06549    1.000
    S10      S        0.83333    0.16667    0.99653    1.000
    S11      S        0.83335    0.16669    0.13445    1.000
    Mo12     Mo       0.16651    0.33325    0.06536    1.000
    S13      S        0.08327    0.41672    0.99648    1.000
    S14      S        0.08332    0.41662    0.13444    1.000
    Mo15     Mo       0.41667    0.33335    0.06547    1.000
    S16      S        0.33334    0.41667    0.99645    1.000
    S17      S        0.33289    0.41656    0.13425    1.000
    Mo18     Mo       0.66668    0.33329    0.06544    1.000
    S19      S        0.58333    0.41667    0.99650    1.000
    S20      S        0.58348    0.41657    0.13443    1.000
    Mo21     Mo       0.91667    0.33335    0.06548    1.000
    S22      S        0.83337    0.41669    0.99651    1.000
    S23      S        0.83332    0.41664    0.13445    1.000
    Mo24     Mo       0.16668    0.58332    0.06550    1.000
    S25      S        0.08333    0.66665    0.99654    1.000
    S26      S        0.08334    0.66666    0.13444    1.000
    Mo27     Mo       0.41662    0.58334    0.06544    1.000
    S28      S        0.33332    0.66667    0.99651    1.000
    S29      S        0.33335    0.66662    0.13449    1.000
    Mo30     Mo       0.66667    0.58329    0.06549    1.000
    S31      S        0.58337    0.66668    0.99653    1.000
    S32      S        0.58340    0.66682    0.13439    1.000
    Mo33     Mo       0.91664    0.58332    0.06550    1.000
    S34      S        0.83330    0.66663    0.99653    1.000
    S35      S        0.83329    0.66663    0.13449    1.000
    Mo36     Mo       0.16667    0.83333    0.06547    1.000
    S37      S        0.08325    0.91657    0.99649    1.000
    S38      S        0.08329    0.91666    0.13443    1.000
    Mo39     Mo       0.41666    0.83328    0.06549    1.000
    S40      S        0.33332    0.91656    0.99649    1.000
    S41      S        0.33336    0.91665    0.13443    1.000
    Mo42     Mo       0.66673    0.83344    0.06546    1.000
    S43      S        0.58333    0.91670    0.99652    1.000
    S44      S        0.58336    0.91670    0.13445    1.000
    Mo45     Mo       0.91662    0.83329    0.06549    1.000
    S46      S        0.83336    0.91669    0.99651    1.000
    S47      S        0.83334    0.91670    0.13445    1.000
    C48      C        0.49296    0.51140    0.33932    1.000
    C49      C        0.46970    0.46462    0.28429    1.000
    C50      C        0.40656    0.33854    0.28421    1.000
    C51      C        0.38286    0.29153    0.33921    1.000
    S52      S        0.43778    0.40136    0.39210    1.000
    H53      H        0.53865    0.60284    0.35197    1.000
    H54      H        0.49641    0.51815    0.24541    1.000
    H55      H        0.37984    0.28514    0.24530    1.000
    H56      H        0.33716    0.20004    0.35178    1.000
