# CIF file generated by openbabel 3.1.0, see https://openbabel.org
data_I
_chemical_name_common ''
_cell_length_a 13.105
_cell_length_b 13.105
_cell_length_c 23.0122
_cell_angle_alpha 90
_cell_angle_beta 90
_cell_angle_gamma 120
loop_
    _atom_site_label
    _atom_site_type_symbol
    _atom_site_fract_x
    _atom_site_fract_y
    _atom_site_fract_z
    _atom_site_occupancy
    Mo0      Mo       0.16761    0.08229    0.05500    1.000
    S1       S        0.08432    0.16571    0.98606    1.000
    S2       S        0.08433    0.16568    0.12394    1.000
    Mo3      Mo       0.41757    0.08207    0.05498    1.000
    S4       S        0.33419    0.16538    0.98601    1.000
    S5       S        0.33438    0.16560    0.12394    1.000
    Mo6      Mo       0.66764    0.08212    0.05491    1.000
    S7       S        0.58415    0.16526    0.98594    1.000
    S8       S        0.58428    0.16546    0.12387    1.000
    Mo9      Mo       0.91763    0.08224    0.05497    1.000
    S10      S        0.83440    0.16562    0.98601    1.000
    S11      S        0.83424    0.16549    0.12391    1.000
    Mo12     Mo       0.16776    0.33235    0.05500    1.000
    S13      S        0.08451    0.41580    0.98611    1.000
    S14      S        0.08442    0.41563    0.12403    1.000
    Mo15     Mo       0.41774    0.33209    0.05486    1.000
    S16      S        0.33443    0.41556    0.98604    1.000
    S17      S        0.33451    0.41548    0.12398    1.000
    Mo18     Mo       0.66769    0.33200    0.05480    1.000
    S19      S        0.58438    0.41534    0.98588    1.000
    S20      S        0.58436    0.41511    0.12368    1.000
    Mo21     Mo       0.91776    0.33222    0.05500    1.000
    S22      S        0.83452    0.41552    0.98599    1.000
    S23      S        0.83424    0.41542    0.12392    1.000
    Mo24     Mo       0.16781    0.58232    0.05510    1.000
    S25      S        0.08445    0.66561    0.98612    1.000
    S26      S        0.08429    0.66564    0.12401    1.000
    Mo27     Mo       0.41791    0.58224    0.05503    1.000
    S28      S        0.33437    0.66544    0.98610    1.000
    S29      S        0.33457    0.66552    0.12408    1.000
    Mo30     Mo       0.66774    0.58205    0.05488    1.000
    S31      S        0.58438    0.66530    0.98582    1.000
    S32      S        0.58483    0.66587    0.12362    1.000
    Mo33     Mo       0.91767    0.58216    0.05498    1.000
    S34      S        0.83443    0.66545    0.98596    1.000
    S35      S        0.83427    0.66549    0.12395    1.000
    Mo36     Mo       0.16762    0.83227    0.05503    1.000
    S37      S        0.08433    0.91565    0.98604    1.000
    S38      S        0.08415    0.91558    0.12392    1.000
    Mo39     Mo       0.41764    0.83207    0.05501    1.000
    S40      S        0.33423    0.91537    0.98608    1.000
    S41      S        0.33430    0.91544    0.12396    1.000
    Mo42     Mo       0.66767    0.83211    0.05472    1.000
    S43      S        0.58416    0.91542    0.98593    1.000
    S44      S        0.58444    0.91543    0.12387    1.000
    Mo45     Mo       0.91760    0.83215    0.05491    1.000
    S46      S        0.83444    0.91563    0.98593    1.000
    S47      S        0.83414    0.91538    0.12387    1.000
    C48      C        0.68050    0.56526    0.26518    1.000
    C49      C        0.56617    0.53507    0.26511    1.000
    C50      C        0.52387    0.61776    0.27354    1.000
    C51      C        0.40971    0.58800    0.27180    1.000
    H52      H        0.70805    0.50091    0.25817    1.000
    H53      H        0.74974    0.65563    0.27217    1.000
    H54      H        0.49920    0.44359    0.25764    1.000
    H55      H        0.59083    0.70913    0.28119    1.000
    H56      H        0.34082    0.49779    0.26400    1.000
    H57      H        0.38209    0.65246    0.27801    1.000
