# CIF file generated by openbabel 3.1.0, see https://openbabel.org
data_I
_chemical_name_common ''
_cell_length_a 13.105
_cell_length_b 13.105
_cell_length_c 23.0122
_cell_angle_alpha 90
_cell_angle_beta 90
_cell_angle_gamma 120
loop_
    _atom_site_label
    _atom_site_type_symbol
    _atom_site_fract_x
    _atom_site_fract_y
    _atom_site_fract_z
    _atom_site_occupancy
    Mo0      Mo       0.16779    0.08422    0.05576    1.000
    S1       S        0.08420    0.16735    0.98690    1.000
    S2       S        0.08466    0.16759    0.12488    1.000
    Mo3      Mo       0.41757    0.08418    0.05575    1.000
    S4       S        0.33428    0.16740    0.98655    1.000
    S5       S        0.33452    0.16786    0.12445    1.000
    Mo6      Mo       0.66769    0.08419    0.05595    1.000
    S7       S        0.58429    0.16731    0.98689    1.000
    S8       S        0.58411    0.16756    0.12484    1.000
    Mo9      Mo       0.91772    0.08419    0.05597    1.000
    S10      S        0.83441    0.16759    0.98706    1.000
    S11      S        0.83437    0.16754    0.12495    1.000
    Mo12     Mo       0.16775    0.33413    0.05576    1.000
    S13      S        0.08424    0.41755    0.98699    1.000
    S14      S        0.08458    0.41740    0.12495    1.000
    Mo15     Mo       0.41777    0.33428    0.05543    1.000
    S16      S        0.33425    0.41760    0.98657    1.000
    S17      S        0.33447    0.41742    0.12441    1.000
    Mo18     Mo       0.66761    0.33413    0.05573    1.000
    S19      S        0.58459    0.41764    0.98658    1.000
    S20      S        0.58422    0.41739    0.12443    1.000
    Mo21     Mo       0.91773    0.33424    0.05602    1.000
    S22      S        0.83452    0.41751    0.98697    1.000
    S23      S        0.83401    0.41738    0.12493    1.000
    Mo24     Mo       0.16771    0.58410    0.05600    1.000
    S25      S        0.08426    0.66735    0.98704    1.000
    S26      S        0.08431    0.66746    0.12495    1.000
    Mo27     Mo       0.41762    0.58412    0.05575    1.000
    S28      S        0.33426    0.66766    0.98699    1.000
    S29      S        0.33444    0.66739    0.12491    1.000
    Mo30     Mo       0.66769    0.58412    0.05576    1.000
    S31      S        0.58441    0.66764    0.98692    1.000
    S32      S        0.58419    0.66721    0.12489    1.000
    Mo33     Mo       0.91757    0.58408    0.05599    1.000
    S34      S        0.83456    0.66764    0.98699    1.000
    S35      S        0.83415    0.66738    0.12491    1.000
    Mo36     Mo       0.16769    0.83417    0.05593    1.000
    S37      S        0.08427    0.91731    0.98694    1.000
    S38      S        0.08459    0.91773    0.12487    1.000
    Mo39     Mo       0.41768    0.83420    0.05597    1.000
    S40      S        0.33426    0.91728    0.98695    1.000
    S41      S        0.33433    0.91769    0.12487    1.000
    Mo42     Mo       0.66771    0.83415    0.05599    1.000
    S43      S        0.58444    0.91751    0.98704    1.000
    S44      S        0.58436    0.91755    0.12496    1.000
    Mo45     Mo       0.91776    0.83419    0.05597    1.000
    S46      S        0.83432    0.91751    0.98704    1.000
    S47      S        0.83444    0.91751    0.12497    1.000
    C48      C        0.48345    0.30434    0.27794    1.000
    C49      C        0.49289    0.41322    0.27281    1.000
    C50      C        0.38134    0.40801    0.27514    1.000
    C51      C        0.28874    0.29523    0.28204    1.000
    S52      S        0.33715    0.19348    0.28603    1.000
    H53      H        0.55258    0.28245    0.27740    1.000
    H54      H        0.57605    0.49415    0.26767    1.000
    H55      H        0.37065    0.48447    0.27169    1.000
    H56      H        0.19602    0.26592    0.28513    1.000
