# CIF file generated by openbabel 3.1.0, see https://openbabel.org
data_I
_chemical_name_common ''
_cell_length_a 13.105
_cell_length_b 13.105
_cell_length_c 23.0122
_cell_angle_alpha 90
_cell_angle_beta 90
_cell_angle_gamma 120
loop_
    _atom_site_label
    _atom_site_type_symbol
    _atom_site_fract_x
    _atom_site_fract_y
    _atom_site_fract_z
    _atom_site_occupancy
    Mo0      Mo       0.16781    0.08276    0.05678    1.000
    S1       S        0.08440    0.16597    0.98781    1.000
    S2       S        0.08452    0.16618    0.12572    1.000
    Mo3      Mo       0.41774    0.08279    0.05670    1.000
    S4       S        0.33429    0.16598    0.98775    1.000
    S5       S        0.33462    0.16639    0.12575    1.000
    Mo6      Mo       0.66767    0.08272    0.05663    1.000
    S7       S        0.58421    0.16592    0.98766    1.000
    S8       S        0.58441    0.16611    0.12555    1.000
    Mo9      Mo       0.91775    0.08276    0.05676    1.000
    S10      S        0.83446    0.16615    0.98778    1.000
    S11      S        0.83428    0.16610    0.12567    1.000
    Mo12     Mo       0.16774    0.33278    0.05663    1.000
    S13      S        0.08430    0.41605    0.98777    1.000
    S14      S        0.08439    0.41599    0.12572    1.000
    Mo15     Mo       0.41770    0.33294    0.05652    1.000
    S16      S        0.33425    0.41613    0.98752    1.000
    S17      S        0.33440    0.41621    0.12548    1.000
    Mo18     Mo       0.66763    0.33277    0.05652    1.000
    S19      S        0.58429    0.41606    0.98733    1.000
    S20      S        0.58466    0.41677    0.12500    1.000
    Mo21     Mo       0.91768    0.33280    0.05673    1.000
    S22      S        0.83443    0.41609    0.98767    1.000
    S23      S        0.83408    0.41606    0.12567    1.000
    Mo24     Mo       0.16768    0.58266    0.05678    1.000
    S25      S        0.08450    0.66612    0.98782    1.000
    S26      S        0.08422    0.66592    0.12570    1.000
    Mo27     Mo       0.41769    0.58274    0.05654    1.000
    S28      S        0.33423    0.66618    0.98777    1.000
    S29      S        0.33448    0.66597    0.12566    1.000
    Mo30     Mo       0.66778    0.58294    0.05623    1.000
    S31      S        0.58427    0.66630    0.98750    1.000
    S32      S        0.58438    0.66586    0.12552    1.000
    Mo33     Mo       0.91765    0.58272    0.05665    1.000
    S34      S        0.83478    0.66635    0.98756    1.000
    S35      S        0.83410    0.66593    0.12553    1.000
    Mo36     Mo       0.16776    0.83274    0.05679    1.000
    S37      S        0.08453    0.91614    0.98780    1.000
    S38      S        0.08442    0.91608    0.12573    1.000
    Mo39     Mo       0.41777    0.83278    0.05676    1.000
    S40      S        0.33437    0.91600    0.98781    1.000
    S41      S        0.33452    0.91619    0.12574    1.000
    Mo42     Mo       0.66774    0.83275    0.05667    1.000
    S43      S        0.58438    0.91605    0.98774    1.000
    S44      S        0.58446    0.91614    0.12568    1.000
    Mo45     Mo       0.91783    0.83281    0.05669    1.000
    S46      S        0.83451    0.91622    0.98778    1.000
    S47      S        0.83443    0.91603    0.12567    1.000
    C48      C        0.66195    0.33547    0.26622    1.000
    C49      C        0.54735    0.30395    0.26828    1.000
    C50      C        0.50419    0.38672    0.27246    1.000
    C51      C        0.38953    0.35522    0.27380    1.000
    H52      H        0.69013    0.27090    0.26274    1.000
    H53      H        0.73076    0.42729    0.26784    1.000
    H54      H        0.48069    0.21100    0.26620    1.000
    H55      H        0.57076    0.47972    0.27412    1.000
    H56      H        0.32063    0.26347    0.27204    1.000
    H57      H        0.36151    0.41995    0.27698    1.000
