# CIF file generated by openbabel 3.1.0, see https://openbabel.org
data_I
_chemical_name_common ''
_cell_length_a 13.105
_cell_length_b 13.105
_cell_length_c 23.0122
_cell_angle_alpha 90
_cell_angle_beta 90
_cell_angle_gamma 120
loop_
    _atom_site_label
    _atom_site_type_symbol
    _atom_site_fract_x
    _atom_site_fract_y
    _atom_site_fract_z
    _atom_site_occupancy
    Mo0      Mo       0.16560    0.08310    0.06151    1.000
    S1       S        0.08209    0.16608    0.99242    1.000
    S2       S        0.08216    0.16644    0.13041    1.000
    Mo3      Mo       0.41546    0.08308    0.06145    1.000
    S4       S        0.33216    0.16643    0.99252    1.000
    S5       S        0.33232    0.16653    0.13054    1.000
    Mo6      Mo       0.66544    0.08290    0.06134    1.000
    S7       S        0.58188    0.16591    0.99226    1.000
    S8       S        0.58232    0.16655    0.13025    1.000
    Mo9      Mo       0.91544    0.08292    0.06142    1.000
    S10      S        0.83217    0.16623    0.99239    1.000
    S11      S        0.83212    0.16639    0.13030    1.000
    Mo12     Mo       0.16524    0.33286    0.06123    1.000
    S13      S        0.08220    0.41643    0.99233    1.000
    S14      S        0.08208    0.41620    0.13031    1.000
    Mo15     Mo       0.41557    0.33304    0.06149    1.000
    S16      S        0.33217    0.41633    0.99242    1.000
    S17      S        0.33151    0.41630    0.13013    1.000
    Mo18     Mo       0.66565    0.33285    0.06096    1.000
    S19      S        0.58204    0.41632    0.99221    1.000
    S20      S        0.58317    0.41634    0.12983    1.000
    Mo21     Mo       0.91550    0.33302    0.06128    1.000
    S22      S        0.83240    0.41644    0.99218    1.000
    S23      S        0.83196    0.41620    0.13018    1.000
    Mo24     Mo       0.16551    0.58298    0.06142    1.000
    S25      S        0.08231    0.66649    0.99249    1.000
    S26      S        0.08200    0.66618    0.13038    1.000
    Mo27     Mo       0.41551    0.58306    0.06139    1.000
    S28      S        0.33217    0.66644    0.99248    1.000
    S29      S        0.33216    0.66630    0.13044    1.000
    Mo30     Mo       0.66559    0.58308    0.06121    1.000
    S31      S        0.58207    0.66633    0.99237    1.000
    S32      S        0.58212    0.66605    0.13040    1.000
    Mo33     Mo       0.91546    0.58299    0.06130    1.000
    S34      S        0.83235    0.66656    0.99234    1.000
    S35      S        0.83207    0.66624    0.13031    1.000
    Mo36     Mo       0.16549    0.83305    0.06153    1.000
    S37      S        0.08227    0.91643    0.99255    1.000
    S38      S        0.08214    0.91641    0.13048    1.000
    Mo39     Mo       0.41545    0.83304    0.06150    1.000
    S40      S        0.33206    0.91634    0.99254    1.000
    S41      S        0.33220    0.91649    0.13049    1.000
    Mo42     Mo       0.66537    0.83282    0.06145    1.000
    S43      S        0.58204    0.91613    0.99248    1.000
    S44      S        0.58219    0.91633    0.13041    1.000
    Mo45     Mo       0.91550    0.83305    0.06144    1.000
    S46      S        0.83204    0.91626    0.99249    1.000
    S47      S        0.83203    0.91626    0.13043    1.000
    C48      C        0.54252    0.40355    0.32161    1.000
    C49      C        0.49459    0.40290    0.37475    1.000
    C50      C        0.38564    0.40281    0.37026    1.000
    C51      C        0.35232    0.40341    0.31376    1.000
    S52      S        0.45440    0.40413    0.26506    1.000
    H53      H        0.62326    0.40386    0.31218    1.000
    H54      H        0.53519    0.40254    0.41560    1.000
    H55      H        0.33472    0.40232    0.40732    1.000
    H56      H        0.27508    0.40353    0.29771    1.000
