# CIF file generated by openbabel 3.1.0, see https://openbabel.org
data_I
_chemical_name_common ''
_cell_length_a 13.105
_cell_length_b 13.105
_cell_length_c 23.0122
_cell_angle_alpha 90
_cell_angle_beta 90
_cell_angle_gamma 120
loop_
    _atom_site_label
    _atom_site_type_symbol
    _atom_site_fract_x
    _atom_site_fract_y
    _atom_site_fract_z
    _atom_site_occupancy
    Mo0      Mo       0.16690    0.08323    0.06323    1.000
    S1       S        0.08348    0.16649    0.99423    1.000
    S2       S        0.08370    0.16675    0.13220    1.000
    Mo3      Mo       0.41692    0.08325    0.06320    1.000
    S4       S        0.33343    0.16633    0.99417    1.000
    S5       S        0.33363    0.16665    0.13218    1.000
    Mo6      Mo       0.66698    0.08337    0.06325    1.000
    S7       S        0.58358    0.16648    0.99419    1.000
    S8       S        0.58365    0.16681    0.13216    1.000
    Mo9      Mo       0.91696    0.08335    0.06326    1.000
    S10      S        0.83359    0.16660    0.99427    1.000
    S11      S        0.83367    0.16679    0.13221    1.000
    Mo12     Mo       0.16685    0.33326    0.06306    1.000
    S13      S        0.08359    0.41670    0.99416    1.000
    S14      S        0.08366    0.41666    0.13212    1.000
    Mo15     Mo       0.41683    0.33312    0.06299    1.000
    S16      S        0.33353    0.41657    0.99402    1.000
    S17      S        0.33357    0.41661    0.13180    1.000
    Mo18     Mo       0.66697    0.33328    0.06300    1.000
    S19      S        0.58354    0.41659    0.99400    1.000
    S20      S        0.58365    0.41661    0.13176    1.000
    Mo21     Mo       0.91695    0.33336    0.06315    1.000
    S22      S        0.83369    0.41672    0.99412    1.000
    S23      S        0.83351    0.41668    0.13207    1.000
    Mo24     Mo       0.16700    0.58333    0.06317    1.000
    S25      S        0.08368    0.66673    0.99423    1.000
    S26      S        0.08354    0.66653    0.13218    1.000
    Mo27     Mo       0.41702    0.58336    0.06304    1.000
    S28      S        0.33367    0.66677    0.99420    1.000
    S29      S        0.33371    0.66652    0.13216    1.000
    Mo30     Mo       0.66690    0.58338    0.06301    1.000
    S31      S        0.58368    0.66686    0.99411    1.000
    S32      S        0.58360    0.66662    0.13211    1.000
    Mo33     Mo       0.91691    0.58334    0.06314    1.000
    S34      S        0.83368    0.66678    0.99417    1.000
    S35      S        0.83337    0.66649    0.13213    1.000
    Mo36     Mo       0.16693    0.83325    0.06326    1.000
    S37      S        0.08356    0.91652    0.99429    1.000
    S38      S        0.08356    0.91657    0.13223    1.000
    Mo39     Mo       0.41700    0.83332    0.06324    1.000
    S40      S        0.33356    0.91651    0.99428    1.000
    S41      S        0.33363    0.91661    0.13222    1.000
    Mo42     Mo       0.66700    0.83341    0.06319    1.000
    S43      S        0.58366    0.91680    0.99426    1.000
    S44      S        0.58367    0.91671    0.13222    1.000
    Mo45     Mo       0.91691    0.83330    0.06324    1.000
    S46      S        0.83372    0.91678    0.99426    1.000
    S47      S        0.83361    0.91666    0.13221    1.000
    C48      C        0.53367    0.40295    0.34987    1.000
    C49      C        0.48922    0.40132    0.29563    1.000
    C50      C        0.37966    0.40040    0.29757    1.000
    C51      C        0.34249    0.40125    0.35328    1.000
    S52      S        0.44156    0.40330    0.40434    1.000
    H53      H        0.61398    0.40398    0.36115    1.000
    H54      H        0.53272    0.40080    0.25578    1.000
    H55      H        0.33099    0.39912    0.25936    1.000
    H56      H        0.26382    0.40082    0.36730    1.000
