# CIF file generated by openbabel 3.1.0, see https://openbabel.org
data_I
_chemical_name_common ''
_cell_length_a 13.105
_cell_length_b 13.105
_cell_length_c 23.0122
_cell_angle_alpha 90
_cell_angle_beta 90
_cell_angle_gamma 120
loop_
    _atom_site_label
    _atom_site_type_symbol
    _atom_site_fract_x
    _atom_site_fract_y
    _atom_site_fract_z
    _atom_site_occupancy
    Mo0      Mo       0.16651    0.08242    0.05595    1.000
    S1       S        0.08293    0.16558    0.98700    1.000
    S2       S        0.08338    0.16593    0.12497    1.000
    Mo3      Mo       0.41647    0.08241    0.05593    1.000
    S4       S        0.33299    0.16545    0.98679    1.000
    S5       S        0.33328    0.16597    0.12478    1.000
    Mo6      Mo       0.66640    0.08230    0.05611    1.000
    S7       S        0.58322    0.16558    0.98698    1.000
    S8       S        0.58311    0.16593    0.12495    1.000
    Mo9      Mo       0.91645    0.08229    0.05612    1.000
    S10      S        0.83305    0.16552    0.98716    1.000
    S11      S        0.83308    0.16562    0.12505    1.000
    Mo12     Mo       0.16648    0.33239    0.05582    1.000
    S13      S        0.08300    0.41583    0.98706    1.000
    S14      S        0.08318    0.41554    0.12503    1.000
    Mo15     Mo       0.41641    0.33228    0.05559    1.000
    S16      S        0.33304    0.41580    0.98675    1.000
    S17      S        0.33311    0.41538    0.12456    1.000
    Mo18     Mo       0.66648    0.33239    0.05580    1.000
    S19      S        0.58330    0.41580    0.98674    1.000
    S20      S        0.58282    0.41533    0.12455    1.000
    Mo21     Mo       0.91641    0.33227    0.05607    1.000
    S22      S        0.83340    0.41584    0.98705    1.000
    S23      S        0.83291    0.41553    0.12502    1.000
    Mo24     Mo       0.16645    0.58233    0.05615    1.000
    S25      S        0.08315    0.66576    0.98723    1.000
    S26      S        0.08312    0.66569    0.12514    1.000
    Mo27     Mo       0.41649    0.58225    0.05593    1.000
    S28      S        0.33309    0.66572    0.98717    1.000
    S29      S        0.33319    0.66540    0.12516    1.000
    Mo30     Mo       0.66631    0.58224    0.05594    1.000
    S31      S        0.58323    0.66591    0.98702    1.000
    S32      S        0.58308    0.66562    0.12492    1.000
    Mo33     Mo       0.91644    0.58233    0.05615    1.000
    S34      S        0.83318    0.66572    0.98717    1.000
    S35      S        0.83276    0.66538    0.12516    1.000
    Mo36     Mo       0.16647    0.83239    0.05619    1.000
    S37      S        0.08299    0.91551    0.98718    1.000
    S38      S        0.08328    0.91595    0.12510    1.000
    Mo39     Mo       0.41640    0.83228    0.05621    1.000
    S40      S        0.33304    0.91550    0.98717    1.000
    S41      S        0.33322    0.91596    0.12509    1.000
    Mo42     Mo       0.66646    0.83237    0.05610    1.000
    S43      S        0.58296    0.91559    0.98721    1.000
    S44      S        0.58307    0.91566    0.12518    1.000
    Mo45     Mo       0.91642    0.83228    0.05622    1.000
    S46      S        0.83318    0.91559    0.98722    1.000
    S47      S        0.83312    0.91566    0.12518    1.000
    C48      C        0.56416    0.44528    0.27639    1.000
    C49      C        0.58428    0.55848    0.27313    1.000
    C50      C        0.47786    0.56379    0.27341    1.000
    C51      C        0.37862    0.45456    0.27689    1.000
    S52      S        0.41401    0.34294    0.27983    1.000
    H53      H        0.62764    0.41582    0.27686    1.000
    H54      H        0.67145    0.63515    0.27053    1.000
    H55      H        0.47529    0.64491    0.27104    1.000
    H56      H        0.28768    0.43279    0.27785    1.000
