# CIF file generated by openbabel 3.1.0, see https://openbabel.org
data_I
_chemical_name_common ''
_cell_length_a 13.105
_cell_length_b 13.105
_cell_length_c 23.0122
_cell_angle_alpha 90
_cell_angle_beta 90
_cell_angle_gamma 120
loop_
    _atom_site_label
    _atom_site_type_symbol
    _atom_site_fract_x
    _atom_site_fract_y
    _atom_site_fract_z
    _atom_site_occupancy
    Mo0      Mo       0.16811    0.08665    0.05692    1.000
    S1       S        0.08458    0.16980    0.98800    1.000
    S2       S        0.08472    0.16991    0.12589    1.000
    Mo3      Mo       0.41802    0.08674    0.05698    1.000
    S4       S        0.33467    0.16981    0.98787    1.000
    S5       S        0.33488    0.17039    0.12590    1.000
    Mo6      Mo       0.66786    0.08668    0.05692    1.000
    S7       S        0.58447    0.16987    0.98788    1.000
    S8       S        0.58481    0.17041    0.12592    1.000
    Mo9      Mo       0.91792    0.08653    0.05697    1.000
    S10      S        0.83455    0.16983    0.98801    1.000
    S11      S        0.83449    0.16991    0.12589    1.000
    Mo12     Mo       0.16792    0.33651    0.05687    1.000
    S13      S        0.08453    0.41978    0.98795    1.000
    S14      S        0.08452    0.41972    0.12589    1.000
    Mo15     Mo       0.41809    0.33674    0.05664    1.000
    S16      S        0.33448    0.41997    0.98785    1.000
    S17      S        0.33471    0.41981    0.12583    1.000
    Mo18     Mo       0.66794    0.33678    0.05667    1.000
    S19      S        0.58469    0.42009    0.98751    1.000
    S20      S        0.58483    0.42046    0.12515    1.000
    Mo21     Mo       0.91789    0.33653    0.05689    1.000
    S22      S        0.83478    0.42000    0.98787    1.000
    S23      S        0.83439    0.41984    0.12586    1.000
    Mo24     Mo       0.16788    0.58642    0.05699    1.000
    S25      S        0.08473    0.66986    0.98803    1.000
    S26      S        0.08446    0.66980    0.12592    1.000
    Mo27     Mo       0.41792    0.58658    0.05686    1.000
    S28      S        0.33445    0.66986    0.98802    1.000
    S29      S        0.33469    0.66979    0.12591    1.000
    Mo30     Mo       0.66808    0.58686    0.05650    1.000
    S31      S        0.58441    0.67022    0.98775    1.000
    S32      S        0.58481    0.67009    0.12564    1.000
    Mo33     Mo       0.91798    0.58659    0.05689    1.000
    S34      S        0.83514    0.67022    0.98777    1.000
    S35      S        0.83456    0.67007    0.12567    1.000
    Mo36     Mo       0.16801    0.83658    0.05697    1.000
    S37      S        0.08484    0.92001    0.98795    1.000
    S38      S        0.08469    0.91991    0.12592    1.000
    Mo39     Mo       0.41792    0.83659    0.05696    1.000
    S40      S        0.33463    0.91992    0.98802    1.000
    S41      S        0.33471    0.92005    0.12590    1.000
    Mo42     Mo       0.66792    0.83672    0.05680    1.000
    S43      S        0.58452    0.92004    0.98793    1.000
    S44      S        0.58458    0.91992    0.12590    1.000
    Mo45     Mo       0.91812    0.83671    0.05682    1.000
    S46      S        0.83465    0.91994    0.98795    1.000
    S47      S        0.83451    0.91972    0.12587    1.000
    C48      C        0.67979    0.42371    0.27187    1.000
    C49      C        0.69745    0.53616    0.26926    1.000
    C50      C        0.58975    0.53901    0.26925    1.000
    C51      C        0.49178    0.42860    0.27182    1.000
    S52      S        0.53021    0.31913    0.27438    1.000
    H53      H        0.74465    0.39602    0.27236    1.000
    H54      H        0.78385    0.61403    0.26744    1.000
    H55      H        0.58546    0.61925    0.26743    1.000
    H56      H        0.40026    0.40490    0.27233    1.000
