# CIF file generated by openbabel 3.1.0, see https://openbabel.org
data_I
_chemical_name_common ''
_cell_length_a 13.105
_cell_length_b 13.105
_cell_length_c 23.0122
_cell_angle_alpha 90
_cell_angle_beta 90
_cell_angle_gamma 120
loop_
    _atom_site_label
    _atom_site_type_symbol
    _atom_site_fract_x
    _atom_site_fract_y
    _atom_site_fract_z
    _atom_site_occupancy
    C0       C        0.60410    0.44357    0.27312    1.000
    C1       C        0.50416    0.44868    0.27256    1.000
    C2       C        0.50009    0.55760    0.27346    1.000
    C3       C        0.40017    0.56279    0.27218    1.000
    H4       H        0.60292    0.36041    0.27210    1.000
    H5       H        0.68999    0.52281    0.27456    1.000
    H6       H        0.41967    0.36726    0.27062    1.000
    H7       H        0.58460    0.63899    0.27502    1.000
    H8       H        0.31445    0.48343    0.27058    1.000
    H9       H        0.40121    0.64588    0.27283    1.000
    Mo10     Mo       0.16752    0.08327    0.05516    1.000
    S11      S        0.08409    0.16657    0.98624    1.000
    S12      S        0.08424    0.16664    0.12419    1.000
    Mo13     Mo       0.41756    0.08333    0.05504    1.000
    S14      S        0.33397    0.16642    0.98601    1.000
    S15      S        0.33446    0.16700    0.12399    1.000
    Mo16     Mo       0.66761    0.08327    0.05515    1.000
    S17      S        0.58411    0.16622    0.98597    1.000
    S18      S        0.58430    0.16698    0.12392    1.000
    Mo19     Mo       0.91753    0.08327    0.05524    1.000
    S20      S        0.83425    0.16656    0.98622    1.000
    S21      S        0.83414    0.16667    0.12416    1.000
    Mo22     Mo       0.16754    0.33330    0.05515    1.000
    S23      S        0.08432    0.41679    0.98627    1.000
    S24      S        0.08415    0.41658    0.12424    1.000
    Mo25     Mo       0.41762    0.33334    0.05473    1.000
    S26      S        0.33409    0.41685    0.98610    1.000
    S27      S        0.33426    0.41630    0.12407    1.000
    Mo28     Mo       0.66759    0.33327    0.05460    1.000
    S29      S        0.58422    0.41662    0.98558    1.000
    S30      S        0.58439    0.41639    0.12325    1.000
    Mo31     Mo       0.91756    0.33326    0.05514    1.000
    S32      S        0.83464    0.41672    0.98596    1.000
    S33      S        0.83385    0.41648    0.12394    1.000
    Mo34     Mo       0.16770    0.58335    0.05531    1.000
    S35      S        0.08451    0.66673    0.98626    1.000
    S36      S        0.08414    0.66663    0.12418    1.000
    Mo37     Mo       0.41771    0.58325    0.05532    1.000
    S38      S        0.33439    0.66660    0.98639    1.000
    S39      S        0.33443    0.66659    0.12437    1.000
    Mo40     Mo       0.66755    0.58314    0.05473    1.000
    S41      S        0.58409    0.66670    0.98608    1.000
    S42      S        0.58467    0.66651    0.12403    1.000
    Mo43     Mo       0.91762    0.58325    0.05506    1.000
    S44      S        0.83450    0.66678    0.98604    1.000
    S45      S        0.83388    0.66622    0.12401    1.000
    Mo46     Mo       0.16771    0.83333    0.05524    1.000
    S47      S        0.08435    0.91655    0.98624    1.000
    S48      S        0.08433    0.91661    0.12418    1.000
    Mo49     Mo       0.41768    0.83328    0.05531    1.000
    S50      S        0.33431    0.91648    0.98624    1.000
    S51      S        0.33443    0.91689    0.12419    1.000
    Mo52     Mo       0.66767    0.83322    0.05515    1.000
    S53      S        0.58423    0.91652    0.98628    1.000
    S54      S        0.58445    0.91667    0.12424    1.000
    Mo55     Mo       0.91767    0.83324    0.05518    1.000
    S56      S        0.83436    0.91664    0.98627    1.000
    S57      S        0.83430    0.91649    0.12420    1.000
