# CIF file generated by openbabel 3.1.0, see https://openbabel.org
data_I
_chemical_name_common ''
_cell_length_a 13.105
_cell_length_b 13.105
_cell_length_c 23.0122
_cell_angle_alpha 90
_cell_angle_beta 90
_cell_angle_gamma 120
loop_
    _atom_site_label
    _atom_site_type_symbol
    _atom_site_fract_x
    _atom_site_fract_y
    _atom_site_fract_z
    _atom_site_occupancy
    Mo0      Mo       0.16632    0.08255    0.05642    1.000
    S1       S        0.08293    0.16584    0.98748    1.000
    S2       S        0.08300    0.16587    0.12541    1.000
    Mo3      Mo       0.41634    0.08240    0.05631    1.000
    S4       S        0.33298    0.16583    0.98744    1.000
    S5       S        0.33315    0.16590    0.12541    1.000
    Mo6      Mo       0.66619    0.08211    0.05623    1.000
    S7       S        0.58286    0.16538    0.98719    1.000
    S8       S        0.58304    0.16552    0.12511    1.000
    Mo9      Mo       0.91628    0.08232    0.05642    1.000
    S10      S        0.83299    0.16554    0.98740    1.000
    S11      S        0.83276    0.16555    0.12533    1.000
    Mo12     Mo       0.16629    0.33249    0.05638    1.000
    S13      S        0.08298    0.41583    0.98746    1.000
    S14      S        0.08284    0.41574    0.12537    1.000
    Mo15     Mo       0.41648    0.33252    0.05635    1.000
    S16      S        0.33297    0.41571    0.98739    1.000
    S17      S        0.33298    0.41573    0.12529    1.000
    Mo18     Mo       0.66634    0.33213    0.05610    1.000
    S19      S        0.58297    0.41550    0.98709    1.000
    S20      S        0.58357    0.41591    0.12485    1.000
    Mo21     Mo       0.91624    0.33228    0.05636    1.000
    S22      S        0.83314    0.41564    0.98730    1.000
    S23      S        0.83274    0.41551    0.12530    1.000
    Mo24     Mo       0.16629    0.58242    0.05644    1.000
    S25      S        0.08309    0.66586    0.98746    1.000
    S26      S        0.08287    0.66575    0.12535    1.000
    Mo27     Mo       0.41631    0.58229    0.05637    1.000
    S28      S        0.33290    0.66563    0.98748    1.000
    S29      S        0.33298    0.66560    0.12541    1.000
    Mo30     Mo       0.66641    0.58230    0.05609    1.000
    S31      S        0.58287    0.66562    0.98731    1.000
    S32      S        0.58311    0.66551    0.12526    1.000
    Mo33     Mo       0.91630    0.58229    0.05632    1.000
    S34      S        0.83325    0.66584    0.98733    1.000
    S35      S        0.83282    0.66547    0.12528    1.000
    Mo36     Mo       0.16627    0.83247    0.05644    1.000
    S37      S        0.08296    0.91585    0.98750    1.000
    S38      S        0.08295    0.91587    0.12538    1.000
    Mo39     Mo       0.41619    0.83228    0.05642    1.000
    S40      S        0.33282    0.91562    0.98745    1.000
    S41      S        0.33302    0.91585    0.12536    1.000
    Mo42     Mo       0.66624    0.83223    0.05631    1.000
    S43      S        0.58272    0.91536    0.98738    1.000
    S44      S        0.58291    0.91556    0.12529    1.000
    Mo45     Mo       0.91630    0.83236    0.05641    1.000
    S46      S        0.83304    0.91571    0.98744    1.000
    S47      S        0.83283    0.91558    0.12534    1.000
    C48      C        0.64276    0.29793    0.27199    1.000
    C49      C        0.53888    0.29536    0.27139    1.000
    C50      C        0.52620    0.39953    0.27326    1.000
    C51      C        0.42250    0.39707    0.27053    1.000
    H52      H        0.64771    0.21799    0.27029    1.000
    H53      H        0.72573    0.38036    0.27404    1.000
    H54      H        0.45758    0.21088    0.26880    1.000
    H55      H        0.60735    0.48394    0.27665    1.000
    H56      H        0.33979    0.31470    0.26686    1.000
    H57      H        0.41736    0.47694    0.27184    1.000
