# CIF file generated by openbabel 3.1.0, see https://openbabel.org
data_I
_chemical_name_common ''
_cell_length_a 13.105
_cell_length_b 13.105
_cell_length_c 23.0122
_cell_angle_alpha 90
_cell_angle_beta 90
_cell_angle_gamma 120
loop_
    _atom_site_label
    _atom_site_type_symbol
    _atom_site_fract_x
    _atom_site_fract_y
    _atom_site_fract_z
    _atom_site_occupancy
    Mo0      Mo       0.17036    0.08593    0.05993    1.000
    S1       S        0.08705    0.16925    0.99098    1.000
    S2       S        0.08705    0.16927    0.12893    1.000
    Mo3      Mo       0.42036    0.08593    0.05990    1.000
    S4       S        0.33694    0.16913    0.99092    1.000
    S5       S        0.33714    0.16939    0.12887    1.000
    Mo6      Mo       0.67033    0.08593    0.05988    1.000
    S7       S        0.58686    0.16902    0.99082    1.000
    S8       S        0.58711    0.16950    0.12882    1.000
    Mo9      Mo       0.92035    0.08594    0.05993    1.000
    S10      S        0.83707    0.16931    0.99094    1.000
    S11      S        0.83700    0.16932    0.12888    1.000
    Mo12     Mo       0.17035    0.33590    0.05988    1.000
    S13      S        0.08707    0.41924    0.99094    1.000
    S14      S        0.08707    0.41929    0.12889    1.000
    Mo15     Mo       0.42046    0.33593    0.05969    1.000
    S16      S        0.33700    0.41926    0.99083    1.000
    S17      S        0.33717    0.41929    0.12872    1.000
    Mo18     Mo       0.67047    0.33588    0.05956    1.000
    S19      S        0.58701    0.41925    0.99057    1.000
    S20      S        0.58761    0.41956    0.12819    1.000
    Mo21     Mo       0.92042    0.33598    0.05988    1.000
    S22      S        0.83725    0.41931    0.99080    1.000
    S23      S        0.83688    0.41925    0.12875    1.000
    Mo24     Mo       0.17040    0.58591    0.05990    1.000
    S25      S        0.08709    0.66928    0.99093    1.000
    S26      S        0.08689    0.66917    0.12885    1.000
    Mo27     Mo       0.42045    0.58600    0.05984    1.000
    S28      S        0.33702    0.66930    0.99094    1.000
    S29      S        0.33707    0.66922    0.12888    1.000
    Mo30     Mo       0.67046    0.58611    0.05958    1.000
    S31      S        0.58695    0.66944    0.99082    1.000
    S32      S        0.58711    0.66913    0.12880    1.000
    Mo33     Mo       0.92030    0.58594    0.05981    1.000
    S34      S        0.83723    0.66945    0.99077    1.000
    S35      S        0.83685    0.66918    0.12876    1.000
    Mo36     Mo       0.17033    0.83593    0.05991    1.000
    S37      S        0.08705    0.91933    0.99093    1.000
    S38      S        0.08699    0.91923    0.12888    1.000
    Mo39     Mo       0.42035    0.83594    0.05993    1.000
    S40      S        0.33699    0.91923    0.99095    1.000
    S41      S        0.33699    0.91928    0.12888    1.000
    Mo42     Mo       0.67032    0.83593    0.05990    1.000
    S43      S        0.58703    0.91925    0.99094    1.000
    S44      S        0.58703    0.91928    0.12889    1.000
    Mo45     Mo       0.92037    0.83596    0.05986    1.000
    S46      S        0.83696    0.91932    0.99094    1.000
    S47      S        0.83698    0.91924    0.12886    1.000
    C48      C        0.61727    0.38868    0.29475    1.000
    C49      C        0.51273    0.37954    0.28250    1.000
    C50      C        0.44286    0.40523    0.32280    1.000
    C51      C        0.34107    0.40046    0.30854    1.000
    H52      H        0.66539    0.36922    0.26252    1.000
    H53      H        0.65785    0.41643    0.33719    1.000
    H54      H        0.47567    0.35138    0.23929    1.000
    H55      H        0.47715    0.43022    0.36670    1.000
    H56      H        0.30453    0.37638    0.26510    1.000
    H57      H        0.29184    0.42065    0.33967    1.000
