# CIF file generated by openbabel 3.1.0, see https://openbabel.org
data_I
_chemical_name_common ''
_cell_length_a 13.105
_cell_length_b 13.105
_cell_length_c 23.0122
_cell_angle_alpha 90
_cell_angle_beta 90
_cell_angle_gamma 120
loop_
    _atom_site_label
    _atom_site_type_symbol
    _atom_site_fract_x
    _atom_site_fract_y
    _atom_site_fract_z
    _atom_site_occupancy
    Mo0      Mo       0.16657    0.08311    0.06502    1.000
    S1       S        0.08310    0.16633    0.99611    1.000
    S2       S        0.08334    0.16650    0.13402    1.000
    Mo3      Mo       0.41659    0.08309    0.06495    1.000
    S4       S        0.33301    0.16611    0.99590    1.000
    S5       S        0.33347    0.16674    0.13386    1.000
    Mo6      Mo       0.66663    0.08311    0.06501    1.000
    S7       S        0.58318    0.16611    0.99590    1.000
    S8       S        0.58336    0.16674    0.13385    1.000
    Mo9      Mo       0.91659    0.08309    0.06513    1.000
    S10      S        0.83333    0.16634    0.99611    1.000
    S11      S        0.83324    0.16650    0.13402    1.000
    Mo12     Mo       0.16656    0.33307    0.06499    1.000
    S13      S        0.08328    0.41649    0.99606    1.000
    S14      S        0.08325    0.41643    0.13395    1.000
    Mo15     Mo       0.41654    0.33310    0.06457    1.000
    S16      S        0.33301    0.41652    0.99587    1.000
    S17      S        0.33344    0.41638    0.13383    1.000
    Mo18     Mo       0.66663    0.33309    0.06455    1.000
    S19      S        0.58326    0.41647    0.99547    1.000
    S20      S        0.58329    0.41648    0.13302    1.000
    Mo21     Mo       0.91659    0.33308    0.06498    1.000
    S22      S        0.83357    0.41652    0.99587    1.000
    S23      S        0.83300    0.41638    0.13382    1.000
    Mo24     Mo       0.16661    0.58314    0.06504    1.000
    S25      S        0.08338    0.66652    0.99607    1.000
    S26      S        0.08315    0.66637    0.13398    1.000
    Mo27     Mo       0.41661    0.58314    0.06492    1.000
    S28      S        0.33323    0.66652    0.99607    1.000
    S29      S        0.33331    0.66638    0.13398    1.000
    Mo30     Mo       0.66665    0.58322    0.06457    1.000
    S31      S        0.58322    0.66673    0.99587    1.000
    S32      S        0.58336    0.66627    0.13384    1.000
    Mo33     Mo       0.91661    0.58314    0.06492    1.000
    S34      S        0.83360    0.66673    0.99587    1.000
    S35      S        0.83300    0.66627    0.13384    1.000
    Mo36     Mo       0.16661    0.83310    0.06507    1.000
    S37      S        0.08331    0.91643    0.99610    1.000
    S38      S        0.08325    0.91643    0.13399    1.000
    Mo39     Mo       0.41659    0.83310    0.06506    1.000
    S40      S        0.33322    0.91635    0.99609    1.000
    S41      S        0.33332    0.91653    0.13400    1.000
    Mo42     Mo       0.66664    0.83314    0.06501    1.000
    S43      S        0.58323    0.91643    0.99609    1.000
    S44      S        0.58329    0.91645    0.13398    1.000
    Mo45     Mo       0.91660    0.83314    0.06501    1.000
    S46      S        0.83335    0.91659    0.99611    1.000
    S47      S        0.83322    0.91635    0.13403    1.000
    O48      O        0.62645    0.49890    0.38498    1.000
    C49      C        0.58141    0.41694    0.35038    1.000
    C50      C        0.59167    0.43772    0.28493    1.000
    C51      C        0.51228    0.28910    0.37062    1.000
    H52      H        0.63488    0.53170    0.27550    1.000
    H53      H        0.64291    0.40098    0.26576    1.000
    H54      H        0.51774    0.28475    0.41765    1.000
    H55      H        0.54583    0.23656    0.34990    1.000
    H56      H        0.50472    0.39224    0.26437    1.000
    H57      H        0.41984    0.25043    0.35765    1.000
