# CIF file generated by openbabel 3.1.0, see https://openbabel.org
data_I
_chemical_name_common ''
_cell_length_a 13.105
_cell_length_b 13.105
_cell_length_c 23.0122
_cell_angle_alpha 90
_cell_angle_beta 90
_cell_angle_gamma 120
loop_
    _atom_site_label
    _atom_site_type_symbol
    _atom_site_fract_x
    _atom_site_fract_y
    _atom_site_fract_z
    _atom_site_occupancy
    Mo0      Mo       0.16667    0.08354    0.06508    1.000
    S1       S        0.08312    0.16669    0.99616    1.000
    S2       S        0.08319    0.16669    0.13407    1.000
    Mo3      Mo       0.41667    0.08353    0.06503    1.000
    S4       S        0.33321    0.16669    0.99602    1.000
    S5       S        0.33352    0.16711    0.13397    1.000
    Mo6      Mo       0.66659    0.08343    0.06506    1.000
    S7       S        0.58328    0.16667    0.99602    1.000
    S8       S        0.58338    0.16703    0.13395    1.000
    Mo9      Mo       0.91650    0.08339    0.06512    1.000
    S10      S        0.83325    0.16674    0.99614    1.000
    S11      S        0.83314    0.16670    0.13409    1.000
    Mo12     Mo       0.16645    0.33334    0.06509    1.000
    S13      S        0.08312    0.41666    0.99615    1.000
    S14      S        0.08318    0.41674    0.13406    1.000
    Mo15     Mo       0.41665    0.33350    0.06478    1.000
    S16      S        0.33292    0.41658    0.99596    1.000
    S17      S        0.33344    0.41684    0.13393    1.000
    Mo18     Mo       0.66672    0.33352    0.06479    1.000
    S19      S        0.58333    0.41675    0.99567    1.000
    S20      S        0.58343    0.41695    0.13340    1.000
    Mo21     Mo       0.91653    0.33337    0.06511    1.000
    S22      S        0.83354    0.41683    0.99600    1.000
    S23      S        0.83318    0.41686    0.13396    1.000
    Mo24     Mo       0.16658    0.58339    0.06507    1.000
    S25      S        0.08348    0.66691    0.99609    1.000
    S26      S        0.08333    0.66684    0.13399    1.000
    Mo27     Mo       0.41653    0.58338    0.06478    1.000
    S28      S        0.33308    0.66677    0.99601    1.000
    S29      S        0.33337    0.66666    0.13397    1.000
    Mo30     Mo       0.66671    0.58353    0.06457    1.000
    S31      S        0.58318    0.66681    0.99567    1.000
    S32      S        0.58330    0.66672    0.13340    1.000
    Mo33     Mo       0.91673    0.58351    0.06498    1.000
    S34      S        0.83370    0.66704    0.99591    1.000
    S35      S        0.83313    0.66675    0.13387    1.000
    Mo36     Mo       0.16675    0.83356    0.06507    1.000
    S37      S        0.08350    0.91697    0.99610    1.000
    S38      S        0.08335    0.91685    0.13401    1.000
    Mo39     Mo       0.41657    0.83341    0.06503    1.000
    S40      S        0.33333    0.91685    0.99609    1.000
    S41      S        0.33341    0.91688    0.13402    1.000
    Mo42     Mo       0.66659    0.83343    0.06479    1.000
    S43      S        0.58317    0.91684    0.99602    1.000
    S44      S        0.58325    0.91659    0.13395    1.000
    Mo45     Mo       0.91672    0.83357    0.06499    1.000
    S46      S        0.83343    0.91695    0.99602    1.000
    S47      S        0.83305    0.91655    0.13397    1.000
    O48      O        0.58325    0.54160    0.38343    1.000
    C49      C        0.58353    0.54179    0.33019    1.000
    C50      C        0.57969    0.63891    0.29541    1.000
    C51      C        0.58772    0.44489    0.29537    1.000
    H52      H        0.57828    0.70354    0.32460    1.000
    H53      H        0.65620    0.68213    0.26655    1.000
    H54      H        0.58873    0.38000    0.32452    1.000
    H55      H        0.66623    0.48288    0.26768    1.000
    H56      H        0.50148    0.60108    0.26752    1.000
    H57      H        0.51152    0.40197    0.26629    1.000
