# CIF file generated by openbabel 3.1.0, see https://openbabel.org
data_I
_chemical_name_common ''
_cell_length_a 13.105
_cell_length_b 13.105
_cell_length_c 23.0122
_cell_angle_alpha 90
_cell_angle_beta 90
_cell_angle_gamma 120
loop_
    _atom_site_label
    _atom_site_type_symbol
    _atom_site_fract_x
    _atom_site_fract_y
    _atom_site_fract_z
    _atom_site_occupancy
    Mo0      Mo       0.16642    0.08347    0.06640    1.000
    S1       S        0.08311    0.16673    0.99738    1.000
    S2       S        0.08309    0.16687    0.13531    1.000
    Mo3      Mo       0.41642    0.08348    0.06640    1.000
    S4       S        0.33299    0.16660    0.99737    1.000
    S5       S        0.33320    0.16704    0.13534    1.000
    Mo6      Mo       0.66636    0.08342    0.06632    1.000
    S7       S        0.58298    0.16674    0.99738    1.000
    S8       S        0.58315    0.16689    0.13531    1.000
    Mo9      Mo       0.91641    0.08341    0.06632    1.000
    S10      S        0.83308    0.16680    0.99740    1.000
    S11      S        0.83303    0.16671    0.13525    1.000
    Mo12     Mo       0.16639    0.33346    0.06624    1.000
    S13      S        0.08307    0.41680    0.99736    1.000
    S14      S        0.08319    0.41682    0.13531    1.000
    Mo15     Mo       0.41641    0.33346    0.06612    1.000
    S16      S        0.33304    0.41679    0.99716    1.000
    S17      S        0.33331    0.41706    0.13499    1.000
    Mo18     Mo       0.66642    0.33349    0.06624    1.000
    S19      S        0.58309    0.41679    0.99718    1.000
    S20      S        0.58310    0.41707    0.13501    1.000
    Mo21     Mo       0.91643    0.33349    0.06635    1.000
    S22      S        0.83309    0.41681    0.99736    1.000
    S23      S        0.83297    0.41682    0.13530    1.000
    Mo24     Mo       0.16648    0.58347    0.06634    1.000
    S25      S        0.08311    0.66688    0.99744    1.000
    S26      S        0.08305    0.66675    0.13530    1.000
    Mo27     Mo       0.41670    0.58375    0.06605    1.000
    S28      S        0.33303    0.66699    0.99731    1.000
    S29      S        0.33334    0.66671    0.13529    1.000
    Mo30     Mo       0.66638    0.58374    0.06606    1.000
    S31      S        0.58316    0.66698    0.99697    1.000
    S32      S        0.58323    0.66713    0.13486    1.000
    Mo33     Mo       0.91634    0.58348    0.06634    1.000
    S34      S        0.83332    0.66699    0.99732    1.000
    S35      S        0.83272    0.66670    0.13529    1.000
    Mo36     Mo       0.16643    0.83350    0.06640    1.000
    S37      S        0.08307    0.91679    0.99745    1.000
    S38      S        0.08301    0.91678    0.13535    1.000
    Mo39     Mo       0.41646    0.83348    0.06637    1.000
    S40      S        0.33310    0.91681    0.99745    1.000
    S41      S        0.33313    0.91678    0.13535    1.000
    Mo42     Mo       0.66639    0.83344    0.06612    1.000
    S43      S        0.58300    0.91687    0.99731    1.000
    S44      S        0.58316    0.91668    0.13527    1.000
    Mo45     Mo       0.91637    0.83348    0.06637    1.000
    S46      S        0.83321    0.91686    0.99731    1.000
    S47      S        0.83286    0.91666    0.13527    1.000
    O48      O        0.56533    0.62826    0.27231    1.000
    C49      C        0.51346    0.52473    0.28779    1.000
    C50      C        0.38138    0.45822    0.29941    1.000
    C51      C        0.57787    0.45597    0.29617    1.000
    H52      H        0.34551    0.51702    0.29534    1.000
    H53      H        0.33772    0.38595    0.26815    1.000
    H54      H        0.66901    0.50813    0.28185    1.000
    H55      H        0.53351    0.37269    0.27223    1.000
    H56      H        0.36289    0.41848    0.34271    1.000
    H57      H        0.57586    0.43383    0.34220    1.000
