# CIF file generated by openbabel 3.1.0, see https://openbabel.org
data_I
_chemical_name_common ''
_cell_length_a 13.105
_cell_length_b 13.105
_cell_length_c 23.0122
_cell_angle_alpha 90
_cell_angle_beta 90
_cell_angle_gamma 120
loop_
    _atom_site_label
    _atom_site_type_symbol
    _atom_site_fract_x
    _atom_site_fract_y
    _atom_site_fract_z
    _atom_site_occupancy
    Mo0      Mo       0.16636    0.08339    0.06830    1.000
    S1       S        0.08293    0.16656    0.99930    1.000
    S2       S        0.08304    0.16679    0.13720    1.000
    Mo3      Mo       0.41641    0.08340    0.06832    1.000
    S4       S        0.33306    0.16667    0.99934    1.000
    S5       S        0.33311    0.16675    0.13725    1.000
    Mo6      Mo       0.66639    0.08344    0.06833    1.000
    S7       S        0.58305    0.16674    0.99937    1.000
    S8       S        0.58306    0.16682    0.13729    1.000
    Mo9      Mo       0.91632    0.08335    0.06830    1.000
    S10      S        0.83303    0.16676    0.99938    1.000
    S11      S        0.83306    0.16676    0.13725    1.000
    Mo12     Mo       0.16617    0.33332    0.06811    1.000
    S13      S        0.08291    0.41684    0.99930    1.000
    S14      S        0.08304    0.41673    0.13721    1.000
    Mo15     Mo       0.41655    0.33337    0.06819    1.000
    S16      S        0.33316    0.41682    0.99927    1.000
    S17      S        0.33285    0.41663    0.13690    1.000
    Mo18     Mo       0.66632    0.33343    0.06828    1.000
    S19      S        0.58315    0.41685    0.99929    1.000
    S20      S        0.58312    0.41671    0.13718    1.000
    Mo21     Mo       0.91631    0.33344    0.06831    1.000
    S22      S        0.83300    0.41682    0.99940    1.000
    S23      S        0.83292    0.41674    0.13730    1.000
    Mo24     Mo       0.16634    0.58344    0.06829    1.000
    S25      S        0.08295    0.66674    0.99940    1.000
    S26      S        0.08300    0.66677    0.13727    1.000
    Mo27     Mo       0.41656    0.58365    0.06819    1.000
    S28      S        0.33306    0.66687    0.99934    1.000
    S29      S        0.33310    0.66684    0.13723    1.000
    Mo30     Mo       0.66641    0.58344    0.06839    1.000
    S31      S        0.58315    0.66678    0.99929    1.000
    S32      S        0.58315    0.66692    0.13718    1.000
    Mo33     Mo       0.91626    0.58347    0.06838    1.000
    S34      S        0.83300    0.66674    0.99940    1.000
    S35      S        0.83291    0.66669    0.13745    1.000
    Mo36     Mo       0.16637    0.83342    0.06832    1.000
    S37      S        0.08296    0.91669    0.99940    1.000
    S38      S        0.08300    0.91670    0.13727    1.000
    Mo39     Mo       0.41642    0.83351    0.06831    1.000
    S40      S        0.33305    0.91677    0.99936    1.000
    S41      S        0.33305    0.91676    0.13725    1.000
    Mo42     Mo       0.66632    0.83338    0.06827    1.000
    S43      S        0.58306    0.91680    0.99936    1.000
    S44      S        0.58306    0.91673    0.13729    1.000
    Mo45     Mo       0.91626    0.83327    0.06838    1.000
    S46      S        0.83301    0.91666    0.99939    1.000
    S47      S        0.83293    0.91666    0.13729    1.000
    O48      O        0.62379    0.56285    0.27073    1.000
    C49      C        0.51781    0.50938    0.28153    1.000
    C50      C        0.44797    0.57314    0.28786    1.000
    C51      C        0.44892    0.37572    0.28771    1.000
    H52      H        0.50740    0.66795    0.29034    1.000
    H53      H        0.39060    0.55340    0.24987    1.000
    H54      H        0.50728    0.33962    0.28237    1.000
    H55      H        0.37897    0.33784    0.25492    1.000
    H56      H        0.39056    0.54214    0.32599    1.000
    H57      H        0.40562    0.35065    0.33016    1.000
