# CIF file generated by openbabel 3.1.0, see https://openbabel.org
data_I
_chemical_name_common ''
_cell_length_a 13.105
_cell_length_b 13.105
_cell_length_c 23.0122
_cell_angle_alpha 90
_cell_angle_beta 90
_cell_angle_gamma 120
loop_
    _atom_site_label
    _atom_site_type_symbol
    _atom_site_fract_x
    _atom_site_fract_y
    _atom_site_fract_z
    _atom_site_occupancy
    Mo0      Mo       0.16434    0.08128    0.06733    1.000
    S1       S        0.08085    0.16444    0.99837    1.000
    S2       S        0.08090    0.16448    0.13631    1.000
    Mo3      Mo       0.41436    0.08119    0.06729    1.000
    S4       S        0.33102    0.16448    0.99833    1.000
    S5       S        0.33119    0.16473    0.13623    1.000
    Mo6      Mo       0.66445    0.08137    0.06731    1.000
    S7       S        0.58100    0.16456    0.99832    1.000
    S8       S        0.58104    0.16469    0.13623    1.000
    Mo9      Mo       0.91422    0.08105    0.06734    1.000
    S10      S        0.83108    0.16459    0.99838    1.000
    S11      S        0.83106    0.16461    0.13628    1.000
    Mo12     Mo       0.16422    0.33115    0.06727    1.000
    S13      S        0.08102    0.41462    0.99830    1.000
    S14      S        0.08106    0.41470    0.13624    1.000
    Mo15     Mo       0.41446    0.33130    0.06714    1.000
    S16      S        0.33083    0.41430    0.99819    1.000
    S17      S        0.33114    0.41468    0.13612    1.000
    Mo18     Mo       0.66438    0.33130    0.06719    1.000
    S19      S        0.58117    0.41475    0.99817    1.000
    S20      S        0.58122    0.41494    0.13598    1.000
    Mo21     Mo       0.91439    0.33125    0.06729    1.000
    S22      S        0.83103    0.41449    0.99828    1.000
    S23      S        0.83101    0.41469    0.13621    1.000
    Mo24     Mo       0.16432    0.58133    0.06726    1.000
    S25      S        0.08101    0.66469    0.99830    1.000
    S26      S        0.08081    0.66457    0.13623    1.000
    Mo27     Mo       0.41427    0.58128    0.06694    1.000
    S28      S        0.33091    0.66480    0.99822    1.000
    S29      S        0.33119    0.66456    0.13619    1.000
    Mo30     Mo       0.66450    0.58158    0.06709    1.000
    S31      S        0.58102    0.66472    0.99801    1.000
    S32      S        0.58065    0.66471    0.13572    1.000
    Mo33     Mo       0.91427    0.58134    0.06717    1.000
    S34      S        0.83120    0.66481    0.99819    1.000
    S35      S        0.83098    0.66457    0.13621    1.000
    Mo36     Mo       0.16435    0.83131    0.06730    1.000
    S37      S        0.08109    0.91473    0.99833    1.000
    S38      S        0.08101    0.91460    0.13630    1.000
    Mo39     Mo       0.41448    0.83137    0.06727    1.000
    S40      S        0.33102    0.91457    0.99833    1.000
    S41      S        0.33107    0.91456    0.13625    1.000
    Mo42     Mo       0.66437    0.83133    0.06714    1.000
    S43      S        0.58116    0.91489    0.99825    1.000
    S44      S        0.58117    0.91466    0.13626    1.000
    Mo45     Mo       0.91433    0.83122    0.06730    1.000
    S46      S        0.83111    0.91457    0.99828    1.000
    S47      S        0.83080    0.91428    0.13633    1.000
    O48      O        0.68906    0.66465    0.26504    1.000
    C49      C        0.59918    0.57712    0.28220    1.000
    C50      C        0.48451    0.57797    0.29163    1.000
    C51      C        0.59687    0.46191    0.29517    1.000
    H52      H        0.49707    0.66523    0.28306    1.000
    H53      H        0.41605    0.51352    0.26278    1.000
    H54      H        0.67882    0.46757    0.28095    1.000
    H55      H        0.52202    0.38783    0.27363    1.000
    H56      H        0.45307    0.55135    0.33616    1.000
    H57      H        0.58574    0.44442    0.34195    1.000
