# CIF file generated by openbabel 3.1.0, see https://openbabel.org
data_I
_chemical_name_common ''
_cell_length_a 13.105
_cell_length_b 13.105
_cell_length_c 23.0122
_cell_angle_alpha 90
_cell_angle_beta 90
_cell_angle_gamma 120
loop_
    _atom_site_label
    _atom_site_type_symbol
    _atom_site_fract_x
    _atom_site_fract_y
    _atom_site_fract_z
    _atom_site_occupancy
    Mo0      Mo       0.16566    0.08135    0.06796    1.000
    S1       S        0.08225    0.16460    0.99897    1.000
    S2       S        0.08226    0.16465    0.13692    1.000
    Mo3      Mo       0.41577    0.08135    0.06796    1.000
    S4       S        0.33228    0.16448    0.99895    1.000
    S5       S        0.33240    0.16471    0.13688    1.000
    Mo6      Mo       0.66568    0.08118    0.06795    1.000
    S7       S        0.58242    0.16460    0.99897    1.000
    S8       S        0.58245    0.16463    0.13692    1.000
    Mo9      Mo       0.91558    0.08119    0.06796    1.000
    S10      S        0.83236    0.16465    0.99900    1.000
    S11      S        0.83232    0.16458    0.13694    1.000
    Mo12     Mo       0.16559    0.33127    0.06789    1.000
    S13      S        0.08232    0.41467    0.99897    1.000
    S14      S        0.08244    0.41473    0.13689    1.000
    Mo15     Mo       0.41566    0.33120    0.06780    1.000
    S16      S        0.33215    0.41434    0.99880    1.000
    S17      S        0.33243    0.41469    0.13671    1.000
    Mo18     Mo       0.66577    0.33127    0.06789    1.000
    S19      S        0.58231    0.41434    0.99880    1.000
    S20      S        0.58238    0.41471    0.13673    1.000
    Mo21     Mo       0.91570    0.33131    0.06796    1.000
    S22      S        0.83246    0.41467    0.99897    1.000
    S23      S        0.83240    0.41474    0.13689    1.000
    Mo24     Mo       0.16577    0.58139    0.06790    1.000
    S25      S        0.08247    0.66480    0.99897    1.000
    S26      S        0.08244    0.66474    0.13690    1.000
    Mo27     Mo       0.41560    0.58122    0.06756    1.000
    S28      S        0.33232    0.66484    0.99884    1.000
    S29      S        0.33261    0.66466    0.13682    1.000
    Mo30     Mo       0.66574    0.58121    0.06756    1.000
    S31      S        0.58243    0.66474    0.99862    1.000
    S32      S        0.58226    0.66437    0.13608    1.000
    Mo33     Mo       0.91576    0.58139    0.06789    1.000
    S34      S        0.83266    0.66485    0.99884    1.000
    S35      S        0.83220    0.66467    0.13680    1.000
    Mo36     Mo       0.16577    0.83142    0.06796    1.000
    S37      S        0.08241    0.91475    0.99900    1.000
    S38      S        0.08227    0.91469    0.13692    1.000
    Mo39     Mo       0.41595    0.83144    0.06791    1.000
    S40      S        0.33246    0.91475    0.99900    1.000
    S41      S        0.33254    0.91469    0.13692    1.000
    Mo42     Mo       0.66577    0.83143    0.06781    1.000
    S43      S        0.58243    0.91475    0.99888    1.000
    S44      S        0.58253    0.91450    0.13700    1.000
    Mo45     Mo       0.91563    0.83145    0.06791    1.000
    S46      S        0.83245    0.91476    0.99889    1.000
    S47      S        0.83208    0.91450    0.13700    1.000
    O48      O        0.63993    0.78319    0.27252    1.000
    C49      C        0.58884    0.67721    0.28322    1.000
    C50      C        0.45548    0.60562    0.29051    1.000
    C51      C        0.65496    0.60957    0.28901    1.000
    H52      H        0.41801    0.66337    0.29070    1.000
    H53      H        0.41743    0.54294    0.25444    1.000
    H54      H        0.74867    0.66750    0.28104    1.000
    H55      H        0.61962    0.53583    0.25829    1.000
    H56      H        0.43196    0.55355    0.33047    1.000
    H57      H        0.64181    0.57147    0.33259    1.000
