# CIF file generated by openbabel 3.1.0, see https://openbabel.org
data_I
_chemical_name_common ''
_cell_length_a 13.105
_cell_length_b 13.105
_cell_length_c 23.0122
_cell_angle_alpha 90
_cell_angle_beta 90
_cell_angle_gamma 120
loop_
    _atom_site_label
    _atom_site_type_symbol
    _atom_site_fract_x
    _atom_site_fract_y
    _atom_site_fract_z
    _atom_site_occupancy
    Mo0      Mo       0.16760    0.08269    0.06774    1.000
    S1       S        0.08427    0.16603    0.99877    1.000
    S2       S        0.08426    0.16603    0.13671    1.000
    Mo3      Mo       0.41761    0.08258    0.06769    1.000
    S4       S        0.33417    0.16587    0.99874    1.000
    S5       S        0.33434    0.16603    0.13666    1.000
    Mo6      Mo       0.66755    0.08239    0.06766    1.000
    S7       S        0.58422    0.16574    0.99867    1.000
    S8       S        0.58431    0.16587    0.13660    1.000
    Mo9      Mo       0.91761    0.08261    0.06772    1.000
    S10      S        0.83431    0.16589    0.99875    1.000
    S11      S        0.83417    0.16582    0.13667    1.000
    Mo12     Mo       0.16768    0.33268    0.06772    1.000
    S13      S        0.08439    0.41596    0.99875    1.000
    S14      S        0.08445    0.41611    0.13667    1.000
    Mo15     Mo       0.41760    0.33259    0.06763    1.000
    S16      S        0.33419    0.41584    0.99866    1.000
    S17      S        0.33445    0.41618    0.13665    1.000
    Mo18     Mo       0.66772    0.33247    0.06754    1.000
    S19      S        0.58416    0.41555    0.99851    1.000
    S20      S        0.58457    0.41608    0.13640    1.000
    Mo21     Mo       0.91771    0.33256    0.06770    1.000
    S22      S        0.83445    0.41581    0.99865    1.000
    S23      S        0.83434    0.41594    0.13655    1.000
    Mo24     Mo       0.16790    0.58272    0.06765    1.000
    S25      S        0.08454    0.66605    0.99866    1.000
    S26      S        0.08441    0.66596    0.13660    1.000
    Mo27     Mo       0.41764    0.58265    0.06750    1.000
    S28      S        0.33437    0.66606    0.99863    1.000
    S29      S        0.33456    0.66593    0.13672    1.000
    Mo30     Mo       0.66779    0.58254    0.06719    1.000
    S31      S        0.58429    0.66601    0.99837    1.000
    S32      S        0.58459    0.66577    0.13589    1.000
    Mo33     Mo       0.91780    0.58256    0.06754    1.000
    S34      S        0.83475    0.66614    0.99851    1.000
    S35      S        0.83424    0.66575    0.13641    1.000
    Mo36     Mo       0.16771    0.83267    0.06768    1.000
    S37      S        0.08443    0.91613    0.99873    1.000
    S38      S        0.08427    0.91595    0.13665    1.000
    Mo39     Mo       0.41772    0.83254    0.06772    1.000
    S40      S        0.33434    0.91594    0.99874    1.000
    S41      S        0.33436    0.91591    0.13666    1.000
    Mo42     Mo       0.66767    0.83267    0.06749    1.000
    S43      S        0.58421    0.91591    0.99862    1.000
    S44      S        0.58435    0.91571    0.13671    1.000
    Mo45     Mo       0.91771    0.83269    0.06762    1.000
    S46      S        0.83447    0.91611    0.99866    1.000
    S47      S        0.83413    0.91583    0.13664    1.000
    O48      O        0.52417    0.71753    0.27317    1.000
    C49      C        0.57717    0.66473    0.28431    1.000
    C50      C        0.51279    0.53128    0.29172    1.000
    C51      C        0.71085    0.72881    0.29038    1.000
    H52      H        0.41788    0.49598    0.29235    1.000
    H53      H        0.53526    0.49192    0.25542    1.000
    H54      H        0.74827    0.82238    0.28134    1.000
    H55      H        0.74836    0.69107    0.26053    1.000
    H56      H        0.54093    0.50662    0.33147    1.000
    H57      H        0.73496    0.71686    0.33436    1.000
