# CIF file generated by openbabel 3.1.0, see https://openbabel.org
data_I
_chemical_name_common ''
_cell_length_a 13.105
_cell_length_b 13.105
_cell_length_c 23.0122
_cell_angle_alpha 90
_cell_angle_beta 90
_cell_angle_gamma 120
loop_
    _atom_site_label
    _atom_site_type_symbol
    _atom_site_fract_x
    _atom_site_fract_y
    _atom_site_fract_z
    _atom_site_occupancy
    Mo0      Mo       0.16617    0.08224    0.06804    1.000
    S1       S        0.08280    0.16540    0.99903    1.000
    S2       S        0.08294    0.16579    0.13698    1.000
    Mo3      Mo       0.41630    0.08223    0.06803    1.000
    S4       S        0.33292    0.16558    0.99908    1.000
    S5       S        0.33297    0.16571    0.13682    1.000
    Mo6      Mo       0.66632    0.08227    0.06804    1.000
    S7       S        0.58285    0.16537    0.99901    1.000
    S8       S        0.58307    0.16576    0.13695    1.000
    Mo9      Mo       0.91617    0.08235    0.06806    1.000
    S10      S        0.83297    0.16578    0.99906    1.000
    S11      S        0.83301    0.16593    0.13698    1.000
    Mo12     Mo       0.16627    0.33232    0.06781    1.000
    S13      S        0.08303    0.41589    0.99897    1.000
    S14      S        0.08304    0.41563    0.13695    1.000
    Mo15     Mo       0.41635    0.33248    0.06793    1.000
    S16      S        0.33300    0.41568    0.99892    1.000
    S17      S        0.33253    0.41554    0.13677    1.000
    Mo18     Mo       0.66628    0.33233    0.06778    1.000
    S19      S        0.58288    0.41567    0.99888    1.000
    S20      S        0.58327    0.41563    0.13668    1.000
    Mo21     Mo       0.91633    0.33252    0.06796    1.000
    S22      S        0.83307    0.41600    0.99897    1.000
    S23      S        0.83277    0.41572    0.13694    1.000
    Mo24     Mo       0.16627    0.58239    0.06809    1.000
    S25      S        0.08290    0.66585    0.99921    1.000
    S26      S        0.08275    0.66553    0.13708    1.000
    Mo27     Mo       0.41616    0.58220    0.06808    1.000
    S28      S        0.33295    0.66576    0.99916    1.000
    S29      S        0.33289    0.66552    0.13714    1.000
    Mo30     Mo       0.66608    0.58226    0.06804    1.000
    S31      S        0.58271    0.66550    0.99908    1.000
    S32      S        0.58266    0.66531    0.13717    1.000
    Mo33     Mo       0.91614    0.58249    0.06808    1.000
    S34      S        0.83284    0.66591    0.99914    1.000
    S35      S        0.83262    0.66563    0.13712    1.000
    Mo36     Mo       0.16624    0.83230    0.06822    1.000
    S37      S        0.08286    0.91551    0.99921    1.000
    S38      S        0.08292    0.91572    0.13716    1.000
    Mo39     Mo       0.41632    0.83228    0.06820    1.000
    S40      S        0.33287    0.91545    0.99922    1.000
    S41      S        0.33303    0.91572    0.13716    1.000
    Mo42     Mo       0.66611    0.83204    0.06813    1.000
    S43      S        0.58289    0.91549    0.99919    1.000
    S44      S        0.58308    0.91562    0.13711    1.000
    Mo45     Mo       0.91617    0.83240    0.06819    1.000
    S46      S        0.83284    0.91562    0.99919    1.000
    S47      S        0.83279    0.91573    0.13711    1.000
    O48      O        0.47351    0.44687    0.26370    1.000
    C49      C        0.42468    0.34350    0.27943    1.000
    C50      C        0.29270    0.27368    0.29141    1.000
    C51      C        0.49291    0.27841    0.28750    1.000
    H52      H        0.25438    0.33045    0.28776    1.000
    H53      H        0.25018    0.20127    0.26011    1.000
    H54      H        0.58416    0.33370    0.27390    1.000
    H55      H        0.45177    0.19623    0.26257    1.000
    H56      H        0.27574    0.23381    0.33466    1.000
    H57      H        0.49024    0.25434    0.33327    1.000
