# CIF file generated by openbabel 3.1.0, see https://openbabel.org
data_I
_chemical_name_common ''
_cell_length_a 13.105
_cell_length_b 13.105
_cell_length_c 23.0122
_cell_angle_alpha 90
_cell_angle_beta 90
_cell_angle_gamma 120
loop_
    _atom_site_label
    _atom_site_type_symbol
    _atom_site_fract_x
    _atom_site_fract_y
    _atom_site_fract_z
    _atom_site_occupancy
    Mo0      Mo       0.16656    0.08229    0.06805    1.000
    S1       S        0.08305    0.16544    0.99907    1.000
    S2       S        0.08319    0.16558    0.13702    1.000
    Mo3      Mo       0.41662    0.08227    0.06805    1.000
    S4       S        0.33316    0.16546    0.99907    1.000
    S5       S        0.33328    0.16569    0.13698    1.000
    Mo6      Mo       0.66646    0.08203    0.06804    1.000
    S7       S        0.58326    0.16552    0.99909    1.000
    S8       S        0.58326    0.16550    0.13701    1.000
    Mo9      Mo       0.91648    0.08211    0.06809    1.000
    S10      S        0.83322    0.16548    0.99913    1.000
    S11      S        0.83310    0.16547    0.13702    1.000
    Mo12     Mo       0.16641    0.33210    0.06794    1.000
    S13      S        0.08318    0.41557    0.99906    1.000
    S14      S        0.08329    0.41558    0.13695    1.000
    Mo15     Mo       0.41654    0.33220    0.06792    1.000
    S16      S        0.33304    0.41531    0.99889    1.000
    S17      S        0.33310    0.41555    0.13677    1.000
    Mo18     Mo       0.66659    0.33219    0.06801    1.000
    S19      S        0.58313    0.41524    0.99889    1.000
    S20      S        0.58335    0.41584    0.13689    1.000
    Mo21     Mo       0.91654    0.33218    0.06803    1.000
    S22      S        0.83320    0.41543    0.99904    1.000
    S23      S        0.83333    0.41569    0.13694    1.000
    Mo24     Mo       0.16674    0.58231    0.06799    1.000
    S25      S        0.08345    0.66565    0.99901    1.000
    S26      S        0.08330    0.66557    0.13694    1.000
    Mo27     Mo       0.41644    0.58213    0.06770    1.000
    S28      S        0.33324    0.66571    0.99895    1.000
    S29      S        0.33350    0.66550    0.13701    1.000
    Mo30     Mo       0.66671    0.58215    0.06754    1.000
    S31      S        0.58326    0.66566    0.99866    1.000
    S32      S        0.58332    0.66527    0.13613    1.000
    Mo33     Mo       0.91673    0.58225    0.06787    1.000
    S34      S        0.83364    0.66579    0.99881    1.000
    S35      S        0.83326    0.66550    0.13669    1.000
    Mo36     Mo       0.16667    0.83226    0.06802    1.000
    S37      S        0.08341    0.91571    0.99908    1.000
    S38      S        0.08316    0.91555    0.13696    1.000
    Mo39     Mo       0.41678    0.83224    0.06806    1.000
    S40      S        0.33339    0.91567    0.99911    1.000
    S41      S        0.33338    0.91556    0.13699    1.000
    Mo42     Mo       0.66659    0.83236    0.06787    1.000
    S43      S        0.58319    0.91562    0.99898    1.000
    S44      S        0.58334    0.91543    0.13709    1.000
    Mo45     Mo       0.91657    0.83234    0.06792    1.000
    S46      S        0.83328    0.91569    0.99900    1.000
    S47      S        0.83297    0.91530    0.13706    1.000
    O48      O        0.58162    0.76479    0.27191    1.000
    C49      C        0.58198    0.67317    0.28253    1.000
    C50      C        0.46829    0.55612    0.29070    1.000
    C51      C        0.69608    0.66962    0.28788    1.000
    H52      H        0.39215    0.56850    0.28875    1.000
    H53      H        0.46115    0.49460    0.25653    1.000
    H54      H        0.77175    0.75564    0.27817    1.000
    H55      H        0.69466    0.60331    0.25839    1.000
    H56      H        0.46956    0.51593    0.33219    1.000
    H57      H        0.70418    0.64317    0.33200    1.000
