# CIF file generated by openbabel 3.1.0, see https://openbabel.org
data_I
_chemical_name_common ''
_cell_length_a 13.105
_cell_length_b 13.105
_cell_length_c 23.0122
_cell_angle_alpha 90
_cell_angle_beta 90
_cell_angle_gamma 120
loop_
    _atom_site_label
    _atom_site_type_symbol
    _atom_site_fract_x
    _atom_site_fract_y
    _atom_site_fract_z
    _atom_site_occupancy
    Mo0      Mo       0.16638    0.08241    0.06806    1.000
    S1       S        0.08288    0.16558    0.99907    1.000
    S2       S        0.08301    0.16571    0.13703    1.000
    Mo3      Mo       0.41645    0.08241    0.06806    1.000
    S4       S        0.33297    0.16558    0.99908    1.000
    S5       S        0.33310    0.16582    0.13699    1.000
    Mo6      Mo       0.66629    0.08215    0.06804    1.000
    S7       S        0.58309    0.16565    0.99910    1.000
    S8       S        0.58309    0.16565    0.13702    1.000
    Mo9      Mo       0.91631    0.08224    0.06810    1.000
    S10      S        0.83304    0.16561    0.99913    1.000
    S11      S        0.83292    0.16559    0.13703    1.000
    Mo12     Mo       0.16624    0.33223    0.06795    1.000
    S13      S        0.08301    0.41568    0.99907    1.000
    S14      S        0.08312    0.41570    0.13696    1.000
    Mo15     Mo       0.41636    0.33233    0.06793    1.000
    S16      S        0.33288    0.41544    0.99890    1.000
    S17      S        0.33293    0.41568    0.13677    1.000
    Mo18     Mo       0.66643    0.33232    0.06801    1.000
    S19      S        0.58296    0.41536    0.99889    1.000
    S20      S        0.58319    0.41598    0.13690    1.000
    Mo21     Mo       0.91637    0.33231    0.06804    1.000
    S22      S        0.83305    0.41558    0.99904    1.000
    S23      S        0.83317    0.41584    0.13694    1.000
    Mo24     Mo       0.16657    0.58243    0.06800    1.000
    S25      S        0.08330    0.66579    0.99902    1.000
    S26      S        0.08315    0.66570    0.13695    1.000
    Mo27     Mo       0.41629    0.58226    0.06770    1.000
    S28      S        0.33308    0.66584    0.99896    1.000
    S29      S        0.33334    0.66563    0.13702    1.000
    Mo30     Mo       0.66654    0.58228    0.06754    1.000
    S31      S        0.58309    0.66579    0.99866    1.000
    S32      S        0.58317    0.66541    0.13613    1.000
    Mo33     Mo       0.91657    0.58239    0.06787    1.000
    S34      S        0.83349    0.66592    0.99881    1.000
    S35      S        0.83310    0.66563    0.13669    1.000
    Mo36     Mo       0.16653    0.83240    0.06803    1.000
    S37      S        0.08327    0.91584    0.99909    1.000
    S38      S        0.08301    0.91567    0.13696    1.000
    Mo39     Mo       0.41662    0.83237    0.06807    1.000
    S40      S        0.33324    0.91581    0.99912    1.000
    S41      S        0.33324    0.91570    0.13701    1.000
    Mo42     Mo       0.66642    0.83248    0.06787    1.000
    S43      S        0.58302    0.91574    0.99899    1.000
    S44      S        0.58318    0.91554    0.13709    1.000
    Mo45     Mo       0.91642    0.83247    0.06793    1.000
    S46      S        0.83312    0.91582    0.99900    1.000
    S47      S        0.83281    0.91543    0.13706    1.000
    O48      O        0.58016    0.76448    0.27188    1.000
    C49      C        0.58202    0.67364    0.28250    1.000
    C50      C        0.46927    0.55569    0.29051    1.000
    C51      C        0.69711    0.67206    0.28801    1.000
    H52      H        0.39239    0.56684    0.28843    1.000
    H53      H        0.46314    0.49462    0.25633    1.000
    H54      H        0.77199    0.75852    0.27817    1.000
    H55      H        0.69674    0.60598    0.25873    1.000
    H56      H        0.47079    0.51566    0.33200    1.000
    H57      H        0.70567    0.64634    0.33223    1.000
