# CIF file generated by openbabel 3.1.0, see https://openbabel.org
data_I
_chemical_name_common ''
_cell_length_a 13.105
_cell_length_b 13.105
_cell_length_c 23.0122
_cell_angle_alpha 90
_cell_angle_beta 90
_cell_angle_gamma 120
loop_
    _atom_site_label
    _atom_site_type_symbol
    _atom_site_fract_x
    _atom_site_fract_y
    _atom_site_fract_z
    _atom_site_occupancy
    Mo0      Mo       0.16909    0.08500    0.06648    1.000
    S1       S        0.08557    0.16821    0.99765    1.000
    S2       S        0.08591    0.16835    0.13561    1.000
    Mo3      Mo       0.41913    0.08492    0.06648    1.000
    S4       S        0.33571    0.16814    0.99740    1.000
    S5       S        0.33604    0.16866    0.13524    1.000
    Mo6      Mo       0.66897    0.08496    0.06655    1.000
    S7       S        0.58560    0.16804    0.99743    1.000
    S8       S        0.58576    0.16866    0.13544    1.000
    Mo9      Mo       0.91899    0.08491    0.06667    1.000
    S10      S        0.83571    0.16821    0.99767    1.000
    S11      S        0.83555    0.16831    0.13557    1.000
    Mo12     Mo       0.16908    0.33491    0.06650    1.000
    S13      S        0.08569    0.41824    0.99763    1.000
    S14      S        0.08573    0.41818    0.13557    1.000
    Mo15     Mo       0.41950    0.33517    0.06619    1.000
    S16      S        0.33569    0.41841    0.99742    1.000
    S17      S        0.33607    0.41824    0.13528    1.000
    Mo18     Mo       0.66900    0.33504    0.06617    1.000
    S19      S        0.58579    0.41830    0.99701    1.000
    S20      S        0.58613    0.41850    0.13490    1.000
    Mo21     Mo       0.91901    0.33496    0.06657    1.000
    S22      S        0.83598    0.41836    0.99744    1.000
    S23      S        0.83538    0.41827    0.13539    1.000
    Mo24     Mo       0.16911    0.58489    0.06663    1.000
    S25      S        0.08594    0.66836    0.99763    1.000
    S26      S        0.08563    0.66822    0.13552    1.000
    Mo27     Mo       0.41914    0.58506    0.06648    1.000
    S28      S        0.33569    0.66840    0.99767    1.000
    S29      S        0.33575    0.66814    0.13561    1.000
    Mo30     Mo       0.66900    0.58479    0.06616    1.000
    S31      S        0.58560    0.66839    0.99743    1.000
    S32      S        0.58578    0.66793    0.13543    1.000
    Mo33     Mo       0.91906    0.58495    0.06646    1.000
    S34      S        0.83597    0.66845    0.99742    1.000
    S35      S        0.83537    0.66795    0.13539    1.000
    Mo36     Mo       0.16909    0.83502    0.06662    1.000
    S37      S        0.08570    0.91827    0.99761    1.000
    S38      S        0.08572    0.91837    0.13556    1.000
    Mo39     Mo       0.41896    0.83490    0.06670    1.000
    S40      S        0.33567    0.91811    0.99766    1.000
    S41      S        0.33573    0.91844    0.13561    1.000
    Mo42     Mo       0.66897    0.83483    0.06656    1.000
    S43      S        0.58551    0.91816    0.99766    1.000
    S44      S        0.58573    0.91827    0.13558    1.000
    Mo45     Mo       0.91901    0.83489    0.06656    1.000
    S46      S        0.83570    0.91834    0.99767    1.000
    S47      S        0.83555    0.91808    0.13556    1.000
    O48      O        0.50603    0.37637    0.26592    1.000
    C49      C        0.40501    0.32510    0.28502    1.000
    C50      C        0.33936    0.39075    0.29877    1.000
    C51      C        0.33919    0.19273    0.29597    1.000
    H52      H        0.39670    0.48492    0.29179    1.000
    H53      H        0.26180    0.35832    0.27065    1.000
    H54      H        0.39208    0.15451    0.28175    1.000
    H55      H        0.25454    0.15042    0.27313    1.000
    H56      H        0.30744    0.37412    0.34364    1.000
    H57      H        0.31965    0.17556    0.34236    1.000
