# CIF file generated by openbabel 3.1.0, see https://openbabel.org
data_I
_chemical_name_common ''
_cell_length_a 13.105
_cell_length_b 13.105
_cell_length_c 23.0122
_cell_angle_alpha 90
_cell_angle_beta 90
_cell_angle_gamma 120
loop_
    _atom_site_label
    _atom_site_type_symbol
    _atom_site_fract_x
    _atom_site_fract_y
    _atom_site_fract_z
    _atom_site_occupancy
    Mo0      Mo       0.16586    0.08240    0.06820    1.000
    S1       S        0.08243    0.16562    0.99927    1.000
    S2       S        0.08252    0.16572    0.13716    1.000
    Mo3      Mo       0.41580    0.08237    0.06822    1.000
    S4       S        0.33254    0.16571    0.99924    1.000
    S5       S        0.33261    0.16588    0.13716    1.000
    Mo6      Mo       0.66575    0.08238    0.06823    1.000
    S7       S        0.58240    0.16569    0.99925    1.000
    S8       S        0.58248    0.16588    0.13718    1.000
    Mo9      Mo       0.91577    0.08233    0.06824    1.000
    S10      S        0.83236    0.16559    0.99928    1.000
    S11      S        0.83242    0.16572    0.13718    1.000
    Mo12     Mo       0.16582    0.33235    0.06816    1.000
    S13      S        0.08239    0.41556    0.99919    1.000
    S14      S        0.08246    0.41571    0.13709    1.000
    Mo15     Mo       0.41602    0.33247    0.06809    1.000
    S16      S        0.33248    0.41570    0.99918    1.000
    S17      S        0.33268    0.41587    0.13710    1.000
    Mo18     Mo       0.66569    0.33247    0.06811    1.000
    S19      S        0.58267    0.41609    0.99919    1.000
    S20      S        0.58234    0.41547    0.13710    1.000
    Mo21     Mo       0.91574    0.33234    0.06816    1.000
    S22      S        0.83242    0.41565    0.99916    1.000
    S23      S        0.83245    0.41592    0.13709    1.000
    Mo24     Mo       0.16579    0.58232    0.06808    1.000
    S25      S        0.08260    0.66580    0.99911    1.000
    S26      S        0.08245    0.66566    0.13704    1.000
    Mo27     Mo       0.41593    0.58251    0.06805    1.000
    S28      S        0.33251    0.66580    0.99914    1.000
    S29      S        0.33244    0.66564    0.13707    1.000
    Mo30     Mo       0.66589    0.58247    0.06845    1.000
    S31      S        0.58268    0.66572    0.99922    1.000
    S32      S        0.58217    0.66580    0.13711    1.000
    Mo33     Mo       0.91587    0.58252    0.06800    1.000
    S34      S        0.83230    0.66572    0.99917    1.000
    S35      S        0.83304    0.66587    0.13703    1.000
    Mo36     Mo       0.16591    0.83240    0.06815    1.000
    S37      S        0.08257    0.91576    0.99922    1.000
    S38      S        0.08252    0.91565    0.13713    1.000
    Mo39     Mo       0.41574    0.83239    0.06818    1.000
    S40      S        0.33255    0.91580    0.99921    1.000
    S41      S        0.33244    0.91568    0.13717    1.000
    Mo42     Mo       0.66568    0.83226    0.06819    1.000
    S43      S        0.58243    0.91572    0.99927    1.000
    S44      S        0.58236    0.91563    0.13718    1.000
    Mo45     Mo       0.91585    0.83228    0.06814    1.000
    S46      S        0.83245    0.91571    0.99928    1.000
    S47      S        0.83241    0.91550    0.13722    1.000
    O48      O        0.67200    0.58954    0.25052    1.000
    C49      C        0.67167    0.59104    0.30385    1.000
    C50      C        0.72421    0.70640    0.33747    1.000
    C51      C        0.61907    0.47772    0.33919    1.000
    H52      H        0.76633    0.78070    0.30768    1.000
    H53      H        0.65458    0.71097    0.36158    1.000
    H54      H        0.57413    0.40163    0.31066    1.000
    H55      H        0.55800    0.47628    0.37201    1.000
    H56      H        0.78804    0.71107    0.36954    1.000
    H57      H        0.68956    0.47319    0.36249    1.000
