# CIF file generated by openbabel 3.1.0, see https://openbabel.org
data_I
_chemical_name_common ''
_cell_length_a 13.105
_cell_length_b 13.105
_cell_length_c 23.0122
_cell_angle_alpha 90
_cell_angle_beta 90
_cell_angle_gamma 120
loop_
    _atom_site_label
    _atom_site_type_symbol
    _atom_site_fract_x
    _atom_site_fract_y
    _atom_site_fract_z
    _atom_site_occupancy
    O0       O        0.50078    0.57824    0.37030    1.000
    C1       C        0.50098    0.57824    0.42354    1.000
    C2       C        0.40219    0.57827    0.45848    1.000
    C3       C        0.59998    0.57808    0.45825    1.000
    H4       H        0.34138    0.58717    0.42958    1.000
    H5       H        0.35471    0.49580    0.48288    1.000
    H6       H        0.65982    0.56777    0.42928    1.000
    H7       H        0.56407    0.50748    0.49060    1.000
    H8       H        0.43810    0.64969    0.49040    1.000
    H9       H        0.64867    0.66108    0.48215    1.000
