# CIF file generated by openbabel 3.1.0, see https://openbabel.org
data_I
_chemical_name_common ''
_cell_length_a 13.105
_cell_length_b 13.105
_cell_length_c 23.0122
_cell_angle_alpha 90
_cell_angle_beta 90
_cell_angle_gamma 120
loop_
    _atom_site_label
    _atom_site_type_symbol
    _atom_site_fract_x
    _atom_site_fract_y
    _atom_site_fract_z
    _atom_site_occupancy
    Mo0      Mo       0.16899    0.08489    0.06619    1.000
    S1       S        0.08560    0.16817    0.99727    1.000
    S2       S        0.08571    0.16824    0.13523    1.000
    Mo3      Mo       0.41897    0.08479    0.06605    1.000
    S4       S        0.33555    0.16818    0.99711    1.000
    S5       S        0.33583    0.16816    0.13496    1.000
    Mo6      Mo       0.66894    0.08485    0.06624    1.000
    S7       S        0.58566    0.16802    0.99715    1.000
    S8       S        0.58551    0.16827    0.13510    1.000
    Mo9      Mo       0.91896    0.08485    0.06622    1.000
    S10      S        0.83558    0.16815    0.99728    1.000
    S11      S        0.83562    0.16816    0.13517    1.000
    Mo12     Mo       0.16896    0.33485    0.06618    1.000
    S13      S        0.08559    0.41815    0.99726    1.000
    S14      S        0.08564    0.41823    0.13514    1.000
    Mo15     Mo       0.41898    0.33487    0.06600    1.000
    S16      S        0.33554    0.41812    0.99711    1.000
    S17      S        0.33578    0.41838    0.13496    1.000
    Mo18     Mo       0.66897    0.33479    0.06599    1.000
    S19      S        0.58556    0.41815    0.99696    1.000
    S20      S        0.58583    0.41836    0.13474    1.000
    Mo21     Mo       0.91894    0.33481    0.06621    1.000
    S22      S        0.83576    0.41825    0.99722    1.000
    S23      S        0.83544    0.41805    0.13511    1.000
    Mo24     Mo       0.16892    0.58487    0.06617    1.000
    S25      S        0.08549    0.66812    0.99723    1.000
    S26      S        0.08563    0.66819    0.13516    1.000
    Mo27     Mo       0.41897    0.58492    0.06605    1.000
    S28      S        0.33554    0.66819    0.99716    1.000
    S29      S        0.33562    0.66818    0.13507    1.000
    Mo30     Mo       0.66899    0.58499    0.06596    1.000
    S31      S        0.58564    0.66842    0.99714    1.000
    S32      S        0.58553    0.66802    0.13509    1.000
    Mo33     Mo       0.91894    0.58484    0.06623    1.000
    S34      S        0.83582    0.66829    0.99721    1.000
    S35      S        0.83545    0.66815    0.13509    1.000
    Mo36     Mo       0.16892    0.83481    0.06616    1.000
    S37      S        0.08561    0.91825    0.99727    1.000
    S38      S        0.08565    0.91819    0.13514    1.000
    Mo39     Mo       0.41892    0.83484    0.06614    1.000
    S40      S        0.33552    0.91807    0.99715    1.000
    S41      S        0.33560    0.91817    0.13506    1.000
    Mo42     Mo       0.66892    0.83486    0.06624    1.000
    S43      S        0.58569    0.91825    0.99729    1.000
    S44      S        0.58550    0.91814    0.13517    1.000
    Mo45     Mo       0.91895    0.83489    0.06621    1.000
    S46      S        0.83557    0.91817    0.99728    1.000
    S47      S        0.83560    0.91819    0.13516    1.000
    C48      C        0.47797    0.35599    0.30083    1.000
    H49      H        0.50828    0.43810    0.32481    1.000
    H50      H        0.49845    0.29832    0.32641    1.000
    H51      H        0.52641    0.37611    0.25983    1.000
    C52      C        0.34596    0.29670    0.28938    1.000
    H53      H        0.31566    0.21514    0.26443    1.000
    H54      H        0.32478    0.35515    0.26446    1.000
    O55      O        0.28659    0.26994    0.34569    1.000
    H56      H        0.20215    0.23079    0.33915    1.000
