# CIF file generated by openbabel 3.1.0, see https://openbabel.org
data_I
_chemical_name_common ''
_cell_length_a 13.105
_cell_length_b 13.105
_cell_length_c 23.0122
_cell_angle_alpha 90
_cell_angle_beta 90
_cell_angle_gamma 120
loop_
    _atom_site_label
    _atom_site_type_symbol
    _atom_site_fract_x
    _atom_site_fract_y
    _atom_site_fract_z
    _atom_site_occupancy
    Mo0      Mo       0.16412    0.08206    0.06693    1.000
    S1       S        0.08061    0.16511    0.99788    1.000
    S2       S        0.08087    0.16555    0.13580    1.000
    Mo3      Mo       0.41414    0.08211    0.06700    1.000
    S4       S        0.33075    0.16524    0.99795    1.000
    S5       S        0.33077    0.16555    0.13590    1.000
    Mo6      Mo       0.66412    0.08208    0.06690    1.000
    S7       S        0.58072    0.16545    0.99799    1.000
    S8       S        0.58086    0.16543    0.13589    1.000
    Mo9      Mo       0.91408    0.08203    0.06695    1.000
    S10      S        0.83086    0.16546    0.99799    1.000
    S11      S        0.83078    0.16541    0.13587    1.000
    Mo12     Mo       0.16386    0.33195    0.06661    1.000
    S13      S        0.08060    0.41554    0.99789    1.000
    S14      S        0.08087    0.41535    0.13581    1.000
    Mo15     Mo       0.41406    0.33198    0.06675    1.000
    S16      S        0.33084    0.41544    0.99769    1.000
    S17      S        0.33031    0.41517    0.13537    1.000
    Mo18     Mo       0.66406    0.33206    0.06694    1.000
    S19      S        0.58093    0.41559    0.99796    1.000
    S20      S        0.58050    0.41521    0.13589    1.000
    Mo21     Mo       0.91408    0.33210    0.06696    1.000
    S22      S        0.83073    0.41541    0.99805    1.000
    S23      S        0.83068    0.41536    0.13593    1.000
    Mo24     Mo       0.16412    0.58210    0.06693    1.000
    S25      S        0.08077    0.66543    0.99802    1.000
    S26      S        0.08081    0.66542    0.13590    1.000
    Mo27     Mo       0.41406    0.58211    0.06676    1.000
    S28      S        0.33075    0.66554    0.99795    1.000
    S29      S        0.33079    0.66528    0.13590    1.000
    Mo30     Mo       0.66409    0.58206    0.06703    1.000
    S31      S        0.58092    0.66537    0.99796    1.000
    S32      S        0.58052    0.66534    0.13588    1.000
    Mo33     Mo       0.91408    0.58206    0.06699    1.000
    S34      S        0.83073    0.66538    0.99805    1.000
    S35      S        0.83081    0.66543    0.13600    1.000
    Mo36     Mo       0.16415    0.83209    0.06697    1.000
    S37      S        0.08077    0.91537    0.99802    1.000
    S38      S        0.08080    0.91542    0.13589    1.000
    Mo39     Mo       0.41414    0.83208    0.06699    1.000
    S40      S        0.33086    0.91546    0.99808    1.000
    S41      S        0.33084    0.91544    0.13594    1.000
    Mo42     Mo       0.66406    0.83203    0.06694    1.000
    S43      S        0.58072    0.91531    0.99799    1.000
    S44      S        0.58086    0.91546    0.13589    1.000
    Mo45     Mo       0.91408    0.83206    0.06698    1.000
    S46      S        0.83073    0.91537    0.99804    1.000
    S47      S        0.83068    0.91537    0.13592    1.000
    C48      C        0.56942    0.53512    0.29693    1.000
    H49      H        0.59590    0.61558    0.32176    1.000
    H50      H        0.59297    0.47884    0.32174    1.000
    H51      H        0.61841    0.55884    0.25599    1.000
    C52      C        0.43733    0.47129    0.28518    1.000
    H53      H        0.40996    0.38931    0.26105    1.000
    H54      H        0.41346    0.52661    0.25927    1.000
    O55      O        0.37724    0.44467    0.34127    1.000
    H56      H        0.29276    0.40346    0.33454    1.000
