# CIF file generated by openbabel 3.1.0, see https://openbabel.org
data_I
_chemical_name_common ''
_cell_length_a 13.105
_cell_length_b 13.105
_cell_length_c 23.0122
_cell_angle_alpha 90
_cell_angle_beta 90
_cell_angle_gamma 120
loop_
    _atom_site_label
    _atom_site_type_symbol
    _atom_site_fract_x
    _atom_site_fract_y
    _atom_site_fract_z
    _atom_site_occupancy
    Mo0      Mo       0.16827    0.08459    0.06658    1.000
    S1       S        0.08483    0.16769    0.99752    1.000
    S2       S        0.08486    0.16792    0.13545    1.000
    Mo3      Mo       0.41810    0.08450    0.06663    1.000
    S4       S        0.33495    0.16794    0.99767    1.000
    S5       S        0.33496    0.16816    0.13562    1.000
    Mo6      Mo       0.66804    0.08438    0.06654    1.000
    S7       S        0.58460    0.16763    0.99760    1.000
    S8       S        0.58483    0.16793    0.13550    1.000
    Mo9      Mo       0.91819    0.08450    0.06646    1.000
    S10      S        0.83463    0.16774    0.99756    1.000
    S11      S        0.83476    0.16775    0.13543    1.000
    Mo12     Mo       0.16825    0.33448    0.06633    1.000
    S13      S        0.08479    0.41777    0.99753    1.000
    S14      S        0.08490    0.41766    0.13546    1.000
    Mo15     Mo       0.41839    0.33471    0.06659    1.000
    S16      S        0.33500    0.41778    0.99735    1.000
    S17      S        0.33462    0.41773    0.13518    1.000
    Mo18     Mo       0.66825    0.33454    0.06641    1.000
    S19      S        0.58495    0.41786    0.99748    1.000
    S20      S        0.58513    0.41781    0.13547    1.000
    Mo21     Mo       0.91817    0.33443    0.06650    1.000
    S22      S        0.83503    0.41789    0.99754    1.000
    S23      S        0.83485    0.41777    0.13544    1.000
    Mo24     Mo       0.16827    0.58437    0.06653    1.000
    S25      S        0.08504    0.66787    0.99764    1.000
    S26      S        0.08496    0.66768    0.13552    1.000
    Mo27     Mo       0.41824    0.58432    0.06639    1.000
    S28      S        0.33493    0.66775    0.99756    1.000
    S29      S        0.33493    0.66752    0.13551    1.000
    Mo30     Mo       0.66841    0.58438    0.06647    1.000
    S31      S        0.58510    0.66779    0.99748    1.000
    S32      S        0.58515    0.66787    0.13530    1.000
    Mo33     Mo       0.91835    0.58450    0.06655    1.000
    S34      S        0.83511    0.66785    0.99758    1.000
    S35      S        0.83498    0.66782    0.13550    1.000
    Mo36     Mo       0.16825    0.83445    0.06664    1.000
    S37      S        0.08506    0.91786    0.99764    1.000
    S38      S        0.08491    0.91791    0.13552    1.000
    Mo39     Mo       0.41820    0.83435    0.06660    1.000
    S40      S        0.33484    0.91776    0.99772    1.000
    S41      S        0.33490    0.91776    0.13559    1.000
    Mo42     Mo       0.66836    0.83457    0.06642    1.000
    S43      S        0.58474    0.91774    0.99759    1.000
    S44      S        0.58490    0.91769    0.13550    1.000
    Mo45     Mo       0.91831    0.83453    0.06652    1.000
    S46      S        0.83503    0.91789    0.99751    1.000
    S47      S        0.83496    0.91790    0.13543    1.000
    C48      C        0.42385    0.55137    0.28713    1.000
    H49      H        0.50027    0.60280    0.25924    1.000
    H50      H        0.34422    0.52481    0.26151    1.000
    H51      H        0.42603    0.60774    0.32268    1.000
    C52      C        0.42558    0.44406    0.31144    1.000
    H53      H        0.34849    0.39186    0.33904    1.000
    H54      H        0.50511    0.47126    0.33748    1.000
    O55      O        0.42431    0.37235    0.26225    1.000
    H56      H        0.42754    0.30466    0.27720    1.000
