# CIF file generated by openbabel 3.1.0, see https://openbabel.org
data_I
_chemical_name_common ''
_cell_length_a 13.105
_cell_length_b 13.105
_cell_length_c 23.0122
_cell_angle_alpha 90
_cell_angle_beta 90
_cell_angle_gamma 120
loop_
    _atom_site_label
    _atom_site_type_symbol
    _atom_site_fract_x
    _atom_site_fract_y
    _atom_site_fract_z
    _atom_site_occupancy
    Mo0      Mo       0.16869    0.08764    0.06674    1.000
    S1       S        0.08551    0.17106    0.99775    1.000
    S2       S        0.08547    0.17112    0.13568    1.000
    Mo3      Mo       0.41868    0.08764    0.06674    1.000
    S4       S        0.33539    0.17105    0.99783    1.000
    S5       S        0.33526    0.17079    0.13577    1.000
    Mo6      Mo       0.66862    0.08769    0.06664    1.000
    S7       S        0.58528    0.17107    0.99775    1.000
    S8       S        0.58537    0.17112    0.13568    1.000
    Mo9      Mo       0.91879    0.08769    0.06664    1.000
    S10      S        0.83535    0.17098    0.99770    1.000
    S11      S        0.83531    0.17090    0.13557    1.000
    Mo12     Mo       0.16884    0.33774    0.06667    1.000
    S13      S        0.08548    0.42114    0.99778    1.000
    S14      S        0.08532    0.42083    0.13570    1.000
    Mo15     Mo       0.41871    0.33771    0.06691    1.000
    S16      S        0.33555    0.42096    0.99779    1.000
    S17      S        0.33532    0.42117    0.13572    1.000
    Mo18     Mo       0.66862    0.33774    0.06667    1.000
    S19      S        0.58513    0.42096    0.99779    1.000
    S20      S        0.58557    0.42118    0.13573    1.000
    Mo21     Mo       0.91868    0.33765    0.06667    1.000
    S22      S        0.83537    0.42114    0.99778    1.000
    S23      S        0.83523    0.42083    0.13570    1.000
    Mo24     Mo       0.16872    0.58763    0.06684    1.000
    S25      S        0.08533    0.67094    0.99791    1.000
    S26      S        0.08534    0.67095    0.13580    1.000
    Mo27     Mo       0.41878    0.58769    0.06676    1.000
    S28      S        0.33526    0.67086    0.99784    1.000
    S29      S        0.33549    0.67095    0.13580    1.000
    Mo30     Mo       0.66864    0.58769    0.06676    1.000
    S31      S        0.58523    0.67074    0.99757    1.000
    S32      S        0.58581    0.67189    0.13536    1.000
    Mo33     Mo       0.91864    0.58763    0.06684    1.000
    S34      S        0.83532    0.67086    0.99784    1.000
    S35      S        0.83518    0.67095    0.13580    1.000
    Mo36     Mo       0.16867    0.83762    0.06681    1.000
    S37      S        0.08537    0.92090    0.99781    1.000
    S38      S        0.08529    0.92098    0.13571    1.000
    Mo39     Mo       0.41863    0.83756    0.06673    1.000
    S40      S        0.33526    0.92090    0.99781    1.000
    S41      S        0.33542    0.92098    0.13571    1.000
    Mo42     Mo       0.66877    0.83782    0.06632    1.000
    S43      S        0.58510    0.92105    0.99761    1.000
    S44      S        0.58548    0.92091    0.13552    1.000
    Mo45     Mo       0.91866    0.83756    0.06673    1.000
    S46      S        0.83567    0.92105    0.99761    1.000
    S47      S        0.83516    0.92091    0.13552    1.000
    C48      C        0.42033    0.34196    0.28777    1.000
    H49      H        0.34406    0.32506    0.26143    1.000
    H50      H        0.47943    0.32518    0.26113    1.000
    H51      H        0.38988    0.28046    0.32431    1.000
    C52      C        0.48374    0.46857    0.30985    1.000
    H53      H        0.56044    0.48592    0.33619    1.000
    H54      H        0.42467    0.48589    0.33644    1.000
    O55      O        0.52224    0.54617    0.25895    1.000
    H56      H        0.56314    0.62760    0.27205    1.000
