# CIF file generated by openbabel 3.1.0, see https://openbabel.org
data_I
_chemical_name_common ''
_cell_length_a 13.105
_cell_length_b 13.105
_cell_length_c 23.0122
_cell_angle_alpha 90
_cell_angle_beta 90
_cell_angle_gamma 120
loop_
    _atom_site_label
    _atom_site_type_symbol
    _atom_site_fract_x
    _atom_site_fract_y
    _atom_site_fract_z
    _atom_site_occupancy
    Mo0      Mo       0.16438    0.07912    0.06629    1.000
    S1       S        0.08087    0.16223    0.99727    1.000
    S2       S        0.08105    0.16254    0.13523    1.000
    Mo3      Mo       0.41440    0.07901    0.06633    1.000
    S4       S        0.33100    0.16223    0.99727    1.000
    S5       S        0.33112    0.16254    0.13523    1.000
    Mo6      Mo       0.66433    0.07903    0.06632    1.000
    S7       S        0.58106    0.16242    0.99735    1.000
    S8       S        0.58110    0.16247    0.13527    1.000
    Mo9      Mo       0.91424    0.07901    0.06632    1.000
    S10      S        0.83099    0.16242    0.99735    1.000
    S11      S        0.83101    0.16247    0.13527    1.000
    Mo12     Mo       0.16431    0.32899    0.06611    1.000
    S13      S        0.08105    0.41260    0.99728    1.000
    S14      S        0.08121    0.41240    0.13525    1.000
    Mo15     Mo       0.41431    0.32899    0.06611    1.000
    S16      S        0.33104    0.41245    0.99722    1.000
    S17      S        0.33061    0.41161    0.13501    1.000
    Mo18     Mo       0.66438    0.32917    0.06630    1.000
    S19      S        0.58118    0.41259    0.99728    1.000
    S20      S        0.58082    0.41241    0.13526    1.000
    Mo21     Mo       0.91441    0.32917    0.06629    1.000
    S22      S        0.83110    0.41259    0.99736    1.000
    S23      S        0.83106    0.41250    0.13529    1.000
    Mo24     Mo       0.16443    0.57911    0.06634    1.000
    S25      S        0.08113    0.66256    0.99739    1.000
    S26      S        0.08113    0.66247    0.13534    1.000
    Mo27     Mo       0.41422    0.57879    0.06653    1.000
    S28      S        0.33108    0.66230    0.99746    1.000
    S29      S        0.33081    0.66207    0.13539    1.000
    Mo30     Mo       0.66431    0.57911    0.06634    1.000
    S31      S        0.58085    0.66229    0.99745    1.000
    S32      S        0.58090    0.66207    0.13538    1.000
    Mo33     Mo       0.91442    0.57921    0.06636    1.000
    S34      S        0.83106    0.66256    0.99739    1.000
    S35      S        0.83096    0.66246    0.13534    1.000
    Mo36     Mo       0.16445    0.82913    0.06638    1.000
    S37      S        0.08103    0.91241    0.99740    1.000
    S38      S        0.08109    0.91255    0.13530    1.000
    Mo39     Mo       0.41428    0.82886    0.06643    1.000
    S40      S        0.33110    0.91228    0.99742    1.000
    S41      S        0.33110    0.91236    0.13540    1.000
    Mo42     Mo       0.66421    0.82885    0.06643    1.000
    S43      S        0.58091    0.91218    0.99744    1.000
    S44      S        0.58100    0.91236    0.13540    1.000
    Mo45     Mo       0.91432    0.82913    0.06638    1.000
    S46      S        0.83081    0.91227    0.99741    1.000
    S47      S        0.83089    0.91235    0.13539    1.000
    C48      C        0.48993    0.72752    0.28865    1.000
    H49      H        0.56560    0.74300    0.26222    1.000
    H50      H        0.43010    0.74244    0.26160    1.000
    H51      H        0.52103    0.79116    0.32427    1.000
    C52      C        0.42728    0.60226    0.31245    1.000
    H53      H        0.35110    0.58619    0.33887    1.000
    H54      H        0.48694    0.58651    0.33942    1.000
    O55      O        0.38789    0.52200    0.26259    1.000
    H56      H        0.34699    0.44127    0.27669    1.000
