# CIF file generated by openbabel 3.1.0, see https://openbabel.org
data_I
_chemical_name_common ''
_cell_length_a 13.105
_cell_length_b 13.105
_cell_length_c 23.0122
_cell_angle_alpha 90
_cell_angle_beta 90
_cell_angle_gamma 120
loop_
    _atom_site_label
    _atom_site_type_symbol
    _atom_site_fract_x
    _atom_site_fract_y
    _atom_site_fract_z
    _atom_site_occupancy
    Mo0      Mo       0.16488    0.08057    0.06631    1.000
    S1       S        0.08146    0.16379    0.99729    1.000
    S2       S        0.08166    0.16412    0.13520    1.000
    Mo3      Mo       0.41497    0.08051    0.06627    1.000
    S4       S        0.33145    0.16363    0.99726    1.000
    S5       S        0.33165    0.16392    0.13519    1.000
    Mo6      Mo       0.66504    0.08061    0.06629    1.000
    S7       S        0.58154    0.16368    0.99722    1.000
    S8       S        0.58171    0.16406    0.13516    1.000
    Mo9      Mo       0.91493    0.08061    0.06632    1.000
    S10      S        0.83171    0.16402    0.99732    1.000
    S11      S        0.83172    0.16415    0.13527    1.000
    Mo12     Mo       0.16487    0.33060    0.06610    1.000
    S13      S        0.08171    0.41430    0.99731    1.000
    S14      S        0.08174    0.41398    0.13521    1.000
    Mo15     Mo       0.41504    0.33041    0.06608    1.000
    S16      S        0.33176    0.41405    0.99719    1.000
    S17      S        0.33148    0.41355    0.13493    1.000
    Mo18     Mo       0.66485    0.33053    0.06606    1.000
    S19      S        0.58170    0.41408    0.99714    1.000
    S20      S        0.58141    0.41333    0.13512    1.000
    Mo21     Mo       0.91505    0.33075    0.06627    1.000
    S22      S        0.83188    0.41421    0.99733    1.000
    S23      S        0.83139    0.41386    0.13519    1.000
    Mo24     Mo       0.16512    0.58079    0.06640    1.000
    S25      S        0.08173    0.66413    0.99745    1.000
    S26      S        0.08174    0.66414    0.13538    1.000
    Mo27     Mo       0.41513    0.58065    0.06632    1.000
    S28      S        0.33181    0.66405    0.99746    1.000
    S29      S        0.33185    0.66395    0.13543    1.000
    Mo30     Mo       0.66475    0.58033    0.06649    1.000
    S31      S        0.58165    0.66375    0.99735    1.000
    S32      S        0.58165    0.66389    0.13527    1.000
    Mo33     Mo       0.91500    0.58073    0.06641    1.000
    S34      S        0.83150    0.66390    0.99754    1.000
    S35      S        0.83138    0.66366    0.13554    1.000
    Mo36     Mo       0.16505    0.83071    0.06640    1.000
    S37      S        0.08149    0.91381    0.99746    1.000
    S38      S        0.08169    0.91404    0.13538    1.000
    Mo39     Mo       0.41512    0.83063    0.06643    1.000
    S40      S        0.33165    0.91378    0.99742    1.000
    S41      S        0.33180    0.91405    0.13533    1.000
    Mo42     Mo       0.66493    0.83042    0.06631    1.000
    S43      S        0.58169    0.91386    0.99741    1.000
    S44      S        0.58187    0.91397    0.13535    1.000
    Mo45     Mo       0.91489    0.83048    0.06651    1.000
    S46      S        0.83170    0.91380    0.99747    1.000
    S47      S        0.83152    0.91393    0.13537    1.000
    C48      C        0.43896    0.53545    0.28880    1.000
    H49      H        0.45898    0.61352    0.26316    1.000
    H50      H        0.39164    0.45778    0.26118    1.000
    H51      H        0.38137    0.52865    0.32474    1.000
    C52      C        0.55176    0.54412    0.31232    1.000
    H53      H        0.53202    0.46563    0.33772    1.000
    H54      H        0.59885    0.62170    0.34026    1.000
    O55      O        0.62606    0.55410    0.26259    1.000
    H56      H        0.69699    0.55643    0.27687    1.000
