# CIF file generated by openbabel 3.1.0, see https://openbabel.org
data_I
_chemical_name_common ''
_cell_length_a 13.105
_cell_length_b 13.105
_cell_length_c 23.0122
_cell_angle_alpha 90
_cell_angle_beta 90
_cell_angle_gamma 120
loop_
    _atom_site_label
    _atom_site_type_symbol
    _atom_site_fract_x
    _atom_site_fract_y
    _atom_site_fract_z
    _atom_site_occupancy
    Mo0      Mo       0.16963    0.08216    0.06887    1.000
    S1       S        0.08628    0.16539    0.99989    1.000
    S2       S        0.08632    0.16557    0.13780    1.000
    Mo3      Mo       0.41962    0.08220    0.06876    1.000
    S4       S        0.33616    0.16541    0.99980    1.000
    S5       S        0.33643    0.16571    0.13774    1.000
    Mo6      Mo       0.66958    0.08209    0.06881    1.000
    S7       S        0.58623    0.16531    0.99977    1.000
    S8       S        0.58633    0.16559    0.13771    1.000
    Mo9      Mo       0.91960    0.08210    0.06884    1.000
    S10      S        0.83626    0.16536    0.99983    1.000
    S11      S        0.83631    0.16551    0.13775    1.000
    Mo12     Mo       0.16965    0.33214    0.06875    1.000
    S13      S        0.08632    0.41540    0.99976    1.000
    S14      S        0.08638    0.41554    0.13767    1.000
    Mo15     Mo       0.41964    0.33215    0.06865    1.000
    S16      S        0.33619    0.41534    0.99969    1.000
    S17      S        0.33651    0.41567    0.13765    1.000
    Mo18     Mo       0.66972    0.33206    0.06859    1.000
    S19      S        0.58634    0.41545    0.99967    1.000
    S20      S        0.58652    0.41550    0.13745    1.000
    Mo21     Mo       0.91966    0.33212    0.06872    1.000
    S22      S        0.83642    0.41551    0.99971    1.000
    S23      S        0.83625    0.41546    0.13765    1.000
    Mo24     Mo       0.16963    0.58213    0.06867    1.000
    S25      S        0.08630    0.66560    0.99979    1.000
    S26      S        0.08628    0.66539    0.13768    1.000
    Mo27     Mo       0.41978    0.58228    0.06848    1.000
    S28      S        0.33627    0.66557    0.99966    1.000
    S29      S        0.33635    0.66539    0.13761    1.000
    Mo30     Mo       0.66953    0.58231    0.06862    1.000
    S31      S        0.58645    0.66570    0.99950    1.000
    S32      S        0.58616    0.66564    0.13734    1.000
    Mo33     Mo       0.91958    0.58216    0.06871    1.000
    S34      S        0.83635    0.66572    0.99983    1.000
    S35      S        0.83593    0.66519    0.13780    1.000
    Mo36     Mo       0.16962    0.83216    0.06882    1.000
    S37      S        0.08616    0.91545    0.99997    1.000
    S38      S        0.08632    0.91546    0.13786    1.000
    Mo39     Mo       0.41960    0.83214    0.06872    1.000
    S40      S        0.33622    0.91551    0.99981    1.000
    S41      S        0.33635    0.91550    0.13772    1.000
    Mo42     Mo       0.66956    0.83211    0.06866    1.000
    S43      S        0.58627    0.91553    0.99980    1.000
    S44      S        0.58616    0.91525    0.13776    1.000
    Mo45     Mo       0.91954    0.83215    0.06896    1.000
    S46      S        0.83642    0.91549    0.99988    1.000
    S47      S        0.83601    0.91539    0.13785    1.000
    C48      C        0.45562    0.56124    0.29485    1.000
    H49      H        0.48507    0.63011    0.32788    1.000
    H50      H        0.44381    0.59657    0.25399    1.000
    H51      H        0.37023    0.48753    0.30798    1.000
    C52      C        0.54458    0.51952    0.28770    1.000
    H53      H        0.51480    0.45007    0.25464    1.000
    H54      H        0.55635    0.48423    0.32874    1.000
    O55      O        0.65682    0.62096    0.26981    1.000
    H56      H        0.71457    0.59568    0.26503    1.000
