# CIF file generated by openbabel 3.1.0, see https://openbabel.org
data_I
_chemical_name_common ''
_cell_length_a 13.105
_cell_length_b 13.105
_cell_length_c 23.0122
_cell_angle_alpha 90
_cell_angle_beta 90
_cell_angle_gamma 120
loop_
    _atom_site_label
    _atom_site_type_symbol
    _atom_site_fract_x
    _atom_site_fract_y
    _atom_site_fract_z
    _atom_site_occupancy
    Mo0      Mo       0.16440    0.07840    0.06677    1.000
    S1       S        0.08087    0.16159    0.99783    1.000
    S2       S        0.08119    0.16178    0.13576    1.000
    Mo3      Mo       0.41435    0.07834    0.06694    1.000
    S4       S        0.33111    0.16158    0.99783    1.000
    S5       S        0.33099    0.16180    0.13575    1.000
    Mo6      Mo       0.66443    0.07848    0.06693    1.000
    S7       S        0.58105    0.16170    0.99801    1.000
    S8       S        0.58100    0.16176    0.13590    1.000
    Mo9      Mo       0.91437    0.07834    0.06693    1.000
    S10      S        0.83104    0.16172    0.99801    1.000
    S11      S        0.83114    0.16175    0.13591    1.000
    Mo12     Mo       0.16434    0.32834    0.06674    1.000
    S13      S        0.08100    0.41173    0.99787    1.000
    S14      S        0.08124    0.41176    0.13583    1.000
    Mo15     Mo       0.41439    0.32834    0.06673    1.000
    S16      S        0.33118    0.41199    0.99784    1.000
    S17      S        0.33090    0.41138    0.13571    1.000
    Mo18     Mo       0.66437    0.32843    0.06692    1.000
    S19      S        0.58111    0.41171    0.99784    1.000
    S20      S        0.58091    0.41177    0.13580    1.000
    Mo21     Mo       0.91444    0.32843    0.06693    1.000
    S22      S        0.83106    0.41171    0.99800    1.000
    S23      S        0.83110    0.41182    0.13586    1.000
    Mo24     Mo       0.16445    0.57839    0.06679    1.000
    S25      S        0.08108    0.66184    0.99794    1.000
    S26      S        0.08111    0.66166    0.13585    1.000
    Mo27     Mo       0.41445    0.57851    0.06706    1.000
    S28      S        0.33130    0.66191    0.99801    1.000
    S29      S        0.33052    0.66145    0.13594    1.000
    Mo30     Mo       0.66432    0.57839    0.06675    1.000
    S31      S        0.58098    0.66191    0.99799    1.000
    S32      S        0.58134    0.66144    0.13592    1.000
    Mo33     Mo       0.91441    0.57844    0.06689    1.000
    S34      S        0.83116    0.66184    0.99792    1.000
    S35      S        0.83091    0.66166    0.13582    1.000
    Mo36     Mo       0.16445    0.82840    0.06695    1.000
    S37      S        0.08099    0.91156    0.99794    1.000
    S38      S        0.08109    0.91181    0.13580    1.000
    Mo39     Mo       0.41432    0.82827    0.06720    1.000
    S40      S        0.33122    0.91161    0.99808    1.000
    S41      S        0.33100    0.91177    0.13603    1.000
    Mo42     Mo       0.66434    0.82827    0.06718    1.000
    S43      S        0.58095    0.91154    0.99821    1.000
    S44      S        0.58130    0.91220    0.13598    1.000
    Mo45     Mo       0.91433    0.82840    0.06693    1.000
    S46      S        0.83079    0.91163    0.99806    1.000
    S47      S        0.83115    0.91176    0.13602    1.000
    C48      C        0.39936    0.55121    0.28818    1.000
    H49      H        0.32160    0.53229    0.26258    1.000
    H50      H        0.45691    0.53239    0.26143    1.000
    H51      H        0.37104    0.49240    0.32578    1.000
    C52      C        0.46404    0.67926    0.30814    1.000
    H53      H        0.54089    0.69770    0.33462    1.000
    H54      H        0.40582    0.69903    0.33399    1.000
    O55      O        0.50251    0.75363    0.25608    1.000
    H56      H        0.54228    0.83588    0.26784    1.000
