# CIF file generated by openbabel 3.1.0, see https://openbabel.org
data_I
_chemical_name_common ''
_cell_length_a 13.105
_cell_length_b 13.105
_cell_length_c 23.0122
_cell_angle_alpha 90
_cell_angle_beta 90
_cell_angle_gamma 120
loop_
    _atom_site_label
    _atom_site_type_symbol
    _atom_site_fract_x
    _atom_site_fract_y
    _atom_site_fract_z
    _atom_site_occupancy
    Mo0      Mo       0.16549    0.08129    0.06612    1.000
    S1       S        0.08208    0.16438    0.99705    1.000
    S2       S        0.08224    0.16486    0.13496    1.000
    Mo3      Mo       0.41550    0.08129    0.06612    1.000
    S4       S        0.33213    0.16457    0.99714    1.000
    S5       S        0.33231    0.16492    0.13506    1.000
    Mo6      Mo       0.66549    0.08127    0.06606    1.000
    S7       S        0.58200    0.16438    0.99705    1.000
    S8       S        0.58232    0.16486    0.13495    1.000
    Mo9      Mo       0.91547    0.08126    0.06606    1.000
    S10      S        0.83211    0.16452    0.99703    1.000
    S11      S        0.83226    0.16484    0.13492    1.000
    Mo12     Mo       0.16555    0.33128    0.06580    1.000
    S13      S        0.08237    0.41494    0.99698    1.000
    S14      S        0.08220    0.41444    0.13489    1.000
    Mo15     Mo       0.41557    0.33145    0.06597    1.000
    S16      S        0.33234    0.41473    0.99689    1.000
    S17      S        0.33182    0.41446    0.13482    1.000
    Mo18     Mo       0.66543    0.33128    0.06579    1.000
    S19      S        0.58209    0.41474    0.99689    1.000
    S20      S        0.58233    0.41445    0.13482    1.000
    Mo21     Mo       0.91554    0.33138    0.06588    1.000
    S22      S        0.83227    0.41495    0.99698    1.000
    S23      S        0.83194    0.41444    0.13489    1.000
    Mo24     Mo       0.16559    0.58133    0.06617    1.000
    S25      S        0.08217    0.66466    0.99730    1.000
    S26      S        0.08206    0.66442    0.13518    1.000
    Mo27     Mo       0.41547    0.58120    0.06602    1.000
    S28      S        0.33220    0.66481    0.99721    1.000
    S29      S        0.33237    0.66455    0.13517    1.000
    Mo30     Mo       0.66542    0.58120    0.06602    1.000
    S31      S        0.58216    0.66462    0.99694    1.000
    S32      S        0.58211    0.66454    0.13475    1.000
    Mo33     Mo       0.91543    0.58133    0.06617    1.000
    S34      S        0.83230    0.66481    0.99721    1.000
    S35      S        0.83187    0.66455    0.13518    1.000
    Mo36     Mo       0.16547    0.83123    0.06626    1.000
    S37      S        0.08216    0.91451    0.99726    1.000
    S38      S        0.08221    0.91472    0.13517    1.000
    Mo39     Mo       0.41551    0.83130    0.06623    1.000
    S40      S        0.33204    0.91451    0.99726    1.000
    S41      S        0.33222    0.91472    0.13517    1.000
    Mo42     Mo       0.66545    0.83120    0.06599    1.000
    S43      S        0.58201    0.91454    0.99718    1.000
    S44      S        0.58228    0.91457    0.13512    1.000
    Mo45     Mo       0.91548    0.83130    0.06623    1.000
    S46      S        0.83223    0.91454    0.99718    1.000
    S47      S        0.83198    0.91457    0.13513    1.000
    C48      C        0.59251    0.68395    0.29553    1.000
    H49      H        0.67084    0.70585    0.26970    1.000
    H50      H        0.53556    0.70603    0.27027    1.000
    H51      H        0.61994    0.73767    0.33493    1.000
    C52      C        0.52746    0.55367    0.31147    1.000
    H53      H        0.44870    0.53137    0.33724    1.000
    H54      H        0.58442    0.53130    0.33676    1.000
    O55      O        0.49296    0.48588    0.25727    1.000
    H56      H        0.45158    0.40238    0.26673    1.000
