# CIF file generated by openbabel 3.1.0, see https://openbabel.org
data_I
_chemical_name_common ''
_cell_length_a 13.105
_cell_length_b 13.105
_cell_length_c 23.0122
_cell_angle_alpha 90
_cell_angle_beta 90
_cell_angle_gamma 120
loop_
    _atom_site_label
    _atom_site_type_symbol
    _atom_site_fract_x
    _atom_site_fract_y
    _atom_site_fract_z
    _atom_site_occupancy
    Mo0      Mo       0.16623    0.08128    0.06850    1.000
    S1       S        0.08298    0.16463    0.99942    1.000
    S2       S        0.08290    0.16471    0.13740    1.000
    Mo3      Mo       0.41615    0.08122    0.06856    1.000
    S4       S        0.33282    0.16440    0.99953    1.000
    S5       S        0.33287    0.16469    0.13755    1.000
    Mo6      Mo       0.66620    0.08117    0.06845    1.000
    S7       S        0.58279    0.16445    0.99956    1.000
    S8       S        0.58288    0.16446    0.13751    1.000
    Mo9      Mo       0.91621    0.08123    0.06836    1.000
    S10      S        0.83291    0.16482    0.99955    1.000
    S11      S        0.83287    0.16442    0.13740    1.000
    Mo12     Mo       0.16625    0.33132    0.06830    1.000
    S13      S        0.08277    0.41463    0.99946    1.000
    S14      S        0.08314    0.41475    0.13748    1.000
    Mo15     Mo       0.41611    0.33110    0.06841    1.000
    S16      S        0.33287    0.41435    0.99925    1.000
    S17      S        0.33281    0.41463    0.13711    1.000
    Mo18     Mo       0.66620    0.33111    0.06848    1.000
    S19      S        0.58281    0.41425    0.99943    1.000
    S20      S        0.58274    0.41437    0.13724    1.000
    Mo21     Mo       0.91625    0.33128    0.06858    1.000
    S22      S        0.83295    0.41455    0.99960    1.000
    S23      S        0.83283    0.41458    0.13756    1.000
    Mo24     Mo       0.16623    0.58132    0.06838    1.000
    S25      S        0.08271    0.66462    0.99949    1.000
    S26      S        0.08294    0.66463    0.13742    1.000
    Mo27     Mo       0.41619    0.58115    0.06810    1.000
    S28      S        0.33281    0.66459    0.99926    1.000
    S29      S        0.33308    0.66449    0.13725    1.000
    Mo30     Mo       0.66615    0.58102    0.06830    1.000
    S31      S        0.58295    0.66431    0.99918    1.000
    S32      S        0.58292    0.66464    0.13705    1.000
    Mo33     Mo       0.91619    0.58122    0.06853    1.000
    S34      S        0.83287    0.66439    0.99946    1.000
    S35      S        0.83264    0.66451    0.13742    1.000
    Mo36     Mo       0.16614    0.83127    0.06846    1.000
    S37      S        0.08286    0.91466    0.99948    1.000
    S38      S        0.08276    0.91456    0.13743    1.000
    Mo39     Mo       0.41623    0.83125    0.06831    1.000
    S40      S        0.33284    0.91477    0.99949    1.000
    S41      S        0.33285    0.91445    0.13741    1.000
    Mo42     Mo       0.66620    0.83119    0.06814    1.000
    S43      S        0.58287    0.91466    0.99929    1.000
    S44      S        0.58285    0.91435    0.13730    1.000
    Mo45     Mo       0.91611    0.83120    0.06837    1.000
    S46      S        0.83294    0.91458    0.99927    1.000
    S47      S        0.83266    0.91442    0.13728    1.000
    C48      C        0.57382    0.53993    0.29354    1.000
    H49      H        0.58190    0.49943    0.33348    1.000
    H50      H        0.59371    0.50013    0.25668    1.000
    H51      H        0.63874    0.63408    0.29448    1.000
    C52      C        0.44985    0.52158    0.28809    1.000
    H53      H        0.44094    0.56154    0.24792    1.000
    H54      H        0.43002    0.56221    0.32478    1.000
    O55      O        0.36739    0.39451    0.28739    1.000
    H56      H        0.28850    0.38131    0.28053    1.000
