# CIF file generated by openbabel 3.1.0, see https://openbabel.org
data_I
_chemical_name_common ''
_cell_length_a 13.105
_cell_length_b 13.105
_cell_length_c 23.0122
_cell_angle_alpha 90
_cell_angle_beta 90
_cell_angle_gamma 120
loop_
    _atom_site_label
    _atom_site_type_symbol
    _atom_site_fract_x
    _atom_site_fract_y
    _atom_site_fract_z
    _atom_site_occupancy
    Mo0      Mo       0.16550    0.08566    0.06795    1.000
    S1       S        0.08204    0.16873    0.99892    1.000
    S2       S        0.08223    0.16911    0.13687    1.000
    Mo3      Mo       0.41550    0.08571    0.06801    1.000
    S4       S        0.33220    0.16898    0.99898    1.000
    S5       S        0.33230    0.16933    0.13694    1.000
    Mo6      Mo       0.66546    0.08570    0.06804    1.000
    S7       S        0.58210    0.16898    0.99905    1.000
    S8       S        0.58216    0.16919    0.13702    1.000
    Mo9      Mo       0.91548    0.08561    0.06797    1.000
    S10      S        0.83201    0.16880    0.99901    1.000
    S11      S        0.83223    0.16910    0.13689    1.000
    Mo12     Mo       0.16528    0.33557    0.06770    1.000
    S13      S        0.08202    0.41902    0.99883    1.000
    S14      S        0.08207    0.41889    0.13678    1.000
    Mo15     Mo       0.41554    0.33583    0.06778    1.000
    S16      S        0.33205    0.41899    0.99873    1.000
    S17      S        0.33187    0.41914    0.13654    1.000
    Mo18     Mo       0.66544    0.33575    0.06791    1.000
    S19      S        0.58218    0.41906    0.99882    1.000
    S20      S        0.58223    0.41915    0.13675    1.000
    Mo21     Mo       0.91537    0.33565    0.06785    1.000
    S22      S        0.83200    0.41904    0.99893    1.000
    S23      S        0.83205    0.41893    0.13692    1.000
    Mo24     Mo       0.16541    0.58562    0.06789    1.000
    S25      S        0.08205    0.66899    0.99902    1.000
    S26      S        0.08208    0.66887    0.13693    1.000
    Mo27     Mo       0.41538    0.58576    0.06765    1.000
    S28      S        0.33206    0.66920    0.99888    1.000
    S29      S        0.33214    0.66883    0.13686    1.000
    Mo30     Mo       0.66545    0.58569    0.06779    1.000
    S31      S        0.58222    0.66918    0.99876    1.000
    S32      S        0.58201    0.66908    0.13656    1.000
    Mo33     Mo       0.91536    0.58560    0.06798    1.000
    S34      S        0.83221    0.66902    0.99896    1.000
    S35      S        0.83188    0.66884    0.13697    1.000
    Mo36     Mo       0.16546    0.83562    0.06800    1.000
    S37      S        0.08212    0.91889    0.99904    1.000
    S38      S        0.08214    0.91897    0.13695    1.000
    Mo39     Mo       0.41548    0.83568    0.06800    1.000
    S40      S        0.33217    0.91901    0.99907    1.000
    S41      S        0.33214    0.91899    0.13697    1.000
    Mo42     Mo       0.66553    0.83581    0.06783    1.000
    S43      S        0.58211    0.91915    0.99901    1.000
    S44      S        0.58218    0.91894    0.13697    1.000
    Mo45     Mo       0.91543    0.83558    0.06800    1.000
    S46      S        0.83226    0.91900    0.99899    1.000
    S47      S        0.83205    0.91890    0.13695    1.000
    C48      C        0.54386    0.57442    0.29524    1.000
    H49      H        0.57996    0.60089    0.33896    1.000
    H50      H        0.61560    0.61859    0.26392    1.000
    H51      H        0.48016    0.60381    0.28772    1.000
    C52      C        0.48441    0.44118    0.28849    1.000
    H53      H        0.44673    0.41416    0.24485    1.000
    H54      H        0.41303    0.39676    0.32022    1.000
    O55      O        0.57408    0.40762    0.29788    1.000
    H56      H        0.53765    0.32282    0.29314    1.000
