# CIF file generated by openbabel 3.1.0, see https://openbabel.org
data_I
_chemical_name_common ''
_cell_length_a 13.105
_cell_length_b 13.105
_cell_length_c 23.0122
_cell_angle_alpha 90
_cell_angle_beta 90
_cell_angle_gamma 120
loop_
    _atom_site_label
    _atom_site_type_symbol
    _atom_site_fract_x
    _atom_site_fract_y
    _atom_site_fract_z
    _atom_site_occupancy
    Mo0      Mo       0.16790    0.08592    0.06685    1.000
    S1       S        0.08462    0.16923    0.99786    1.000
    S2       S        0.08468    0.16935    0.13582    1.000
    Mo3      Mo       0.41784    0.08591    0.06685    1.000
    S4       S        0.33458    0.16933    0.99798    1.000
    S5       S        0.33452    0.16921    0.13582    1.000
    Mo6      Mo       0.66783    0.08596    0.06682    1.000
    S7       S        0.58445    0.16924    0.99787    1.000
    S8       S        0.58448    0.16933    0.13582    1.000
    Mo9      Mo       0.91796    0.08597    0.06682    1.000
    S10      S        0.83455    0.16927    0.99789    1.000
    S11      S        0.83459    0.16936    0.13575    1.000
    Mo12     Mo       0.16800    0.33598    0.06675    1.000
    S13      S        0.08457    0.41927    0.99784    1.000
    S14      S        0.08465    0.41925    0.13575    1.000
    Mo15     Mo       0.41796    0.33610    0.06702    1.000
    S16      S        0.33459    0.41912    0.99777    1.000
    S17      S        0.33445    0.41943    0.13573    1.000
    Mo18     Mo       0.66780    0.33597    0.06677    1.000
    S19      S        0.58437    0.41913    0.99779    1.000
    S20      S        0.58477    0.41942    0.13575    1.000
    Mo21     Mo       0.91791    0.33599    0.06680    1.000
    S22      S        0.83451    0.41927    0.99785    1.000
    S23      S        0.83443    0.41925    0.13576    1.000
    Mo24     Mo       0.16790    0.58591    0.06681    1.000
    S25      S        0.08450    0.66918    0.99788    1.000
    S26      S        0.08446    0.66908    0.13579    1.000
    Mo27     Mo       0.41777    0.58583    0.06665    1.000
    S28      S        0.33448    0.66933    0.99780    1.000
    S29      S        0.33462    0.66915    0.13577    1.000
    Mo30     Mo       0.66789    0.58583    0.06667    1.000
    S31      S        0.58451    0.66916    0.99765    1.000
    S32      S        0.58462    0.66942    0.13549    1.000
    Mo33     Mo       0.91783    0.58591    0.06682    1.000
    S34      S        0.83467    0.66932    0.99782    1.000
    S35      S        0.83436    0.66916    0.13578    1.000
    Mo36     Mo       0.16783    0.83583    0.06688    1.000
    S37      S        0.08461    0.91923    0.99793    1.000
    S38      S        0.08451    0.91925    0.13582    1.000
    Mo39     Mo       0.41788    0.83591    0.06682    1.000
    S40      S        0.33444    0.91923    0.99792    1.000
    S41      S        0.33457    0.91924    0.13582    1.000
    Mo42     Mo       0.66793    0.83602    0.06659    1.000
    S43      S        0.58447    0.91938    0.99779    1.000
    S44      S        0.58463    0.91917    0.13571    1.000
    Mo45     Mo       0.91785    0.83591    0.06683    1.000
    S46      S        0.83474    0.91937    0.99780    1.000
    S47      S        0.83438    0.91918    0.13571    1.000
    C48      C        0.51455    0.53118    0.28757    1.000
    H49      H        0.59127    0.54899    0.26137    1.000
    H50      H        0.45580    0.54857    0.26099    1.000
    H51      H        0.54449    0.59199    0.32440    1.000
    C52      C        0.45118    0.40421    0.30920    1.000
    H53      H        0.37464    0.38664    0.33573    1.000
    H54      H        0.51037    0.38666    0.33554    1.000
    O55      O        0.41224    0.32680    0.25822    1.000
    H56      H        0.37274    0.24532    0.27122    1.000
