# CIF file generated by openbabel 3.1.0, see https://openbabel.org
data_I
_chemical_name_common ''
_cell_length_a 13.105
_cell_length_b 13.105
_cell_length_c 23.0122
_cell_angle_alpha 90
_cell_angle_beta 90
_cell_angle_gamma 120
loop_
    _atom_site_label
    _atom_site_type_symbol
    _atom_site_fract_x
    _atom_site_fract_y
    _atom_site_fract_z
    _atom_site_occupancy
    Mo0      Mo       0.16602    0.08410    0.06792    1.000
    S1       S        0.08275    0.16750    0.99902    1.000
    S2       S        0.08277    0.16744    0.13693    1.000
    Mo3      Mo       0.41605    0.08416    0.06782    1.000
    S4       S        0.33260    0.16741    0.99890    1.000
    S5       S        0.33275    0.16750    0.13682    1.000
    Mo6      Mo       0.66611    0.08418    0.06787    1.000
    S7       S        0.58280    0.16757    0.99893    1.000
    S8       S        0.58267    0.16743    0.13682    1.000
    Mo9      Mo       0.91606    0.08413    0.06795    1.000
    S10      S        0.83290    0.16762    0.99900    1.000
    S11      S        0.83273    0.16748    0.13689    1.000
    Mo12     Mo       0.16634    0.33420    0.06799    1.000
    S13      S        0.08278    0.41738    0.99900    1.000
    S14      S        0.08308    0.41775    0.13694    1.000
    Mo15     Mo       0.41595    0.33415    0.06780    1.000
    S16      S        0.33260    0.41732    0.99882    1.000
    S17      S        0.33295    0.41734    0.13692    1.000
    Mo18     Mo       0.66606    0.33416    0.06792    1.000
    S19      S        0.58277    0.41745    0.99892    1.000
    S20      S        0.58256    0.41745    0.13687    1.000
    Mo21     Mo       0.91616    0.33421    0.06798    1.000
    S22      S        0.83279    0.41746    0.99900    1.000
    S23      S        0.83273    0.41749    0.13691    1.000
    Mo24     Mo       0.16612    0.58424    0.06777    1.000
    S25      S        0.08264    0.66746    0.99889    1.000
    S26      S        0.08289    0.66754    0.13683    1.000
    Mo27     Mo       0.41585    0.58384    0.06787    1.000
    S28      S        0.33268    0.66734    0.99873    1.000
    S29      S        0.33283    0.66789    0.13646    1.000
    Mo30     Mo       0.66602    0.58408    0.06787    1.000
    S31      S        0.58263    0.66731    0.99888    1.000
    S32      S        0.58262    0.66747    0.13669    1.000
    Mo33     Mo       0.91604    0.58415    0.06793    1.000
    S34      S        0.83269    0.66742    0.99895    1.000
    S35      S        0.83258    0.66741    0.13689    1.000
    Mo36     Mo       0.16607    0.83416    0.06783    1.000
    S37      S        0.08264    0.91748    0.99893    1.000
    S38      S        0.08271    0.91742    0.13684    1.000
    Mo39     Mo       0.41612    0.83427    0.06756    1.000
    S40      S        0.33262    0.91759    0.99876    1.000
    S41      S        0.33283    0.91741    0.13672    1.000
    Mo42     Mo       0.66599    0.83411    0.06776    1.000
    S43      S        0.58297    0.91767    0.99876    1.000
    S44      S        0.58255    0.91728    0.13675    1.000
    Mo45     Mo       0.91597    0.83407    0.06790    1.000
    S46      S        0.83277    0.91749    0.99892    1.000
    S47      S        0.83250    0.91730    0.13684    1.000
    C48      C        0.51498    0.63164    0.30373    1.000
    H49      H        0.48987    0.56183    0.33588    1.000
    H50      H        0.54339    0.60666    0.26423    1.000
    H51      H        0.58950    0.71262    0.32065    1.000
    C52      C        0.41193    0.65097    0.29068    1.000
    H53      H        0.43756    0.72230    0.25897    1.000
    H54      H        0.38177    0.67429    0.33026    1.000
    O55      O        0.31649    0.54084    0.26683    1.000
    H56      H        0.24763    0.54942    0.26112    1.000
