# CIF file generated by openbabel 3.1.0, see https://openbabel.org
data_I
_chemical_name_common ''
_cell_length_a 13.105
_cell_length_b 13.105
_cell_length_c 23.0122
_cell_angle_alpha 90
_cell_angle_beta 90
_cell_angle_gamma 120
loop_
    _atom_site_label
    _atom_site_type_symbol
    _atom_site_fract_x
    _atom_site_fract_y
    _atom_site_fract_z
    _atom_site_occupancy
    Mo0      Mo       0.16975    0.08887    0.06614    1.000
    S1       S        0.08647    0.17207    0.99713    1.000
    S2       S        0.08669    0.17249    0.13510    1.000
    Mo3      Mo       0.41961    0.08886    0.06606    1.000
    S4       S        0.33622    0.17206    0.99710    1.000
    S5       S        0.33646    0.17250    0.13508    1.000
    Mo6      Mo       0.66971    0.08879    0.06607    1.000
    S7       S        0.58636    0.17216    0.99716    1.000
    S8       S        0.58626    0.17206    0.13504    1.000
    Mo9      Mo       0.91989    0.08887    0.06609    1.000
    S10      S        0.83646    0.17216    0.99717    1.000
    S11      S        0.83643    0.17207    0.13505    1.000
    Mo12     Mo       0.16999    0.33899    0.06593    1.000
    S13      S        0.08627    0.42207    0.99706    1.000
    S14      S        0.08668    0.42221    0.13503    1.000
    Mo15     Mo       0.41965    0.33899    0.06590    1.000
    S16      S        0.33633    0.42203    0.99666    1.000
    S17      S        0.33670    0.42267    0.13445    1.000
    Mo18     Mo       0.66965    0.33877    0.06611    1.000
    S19      S        0.58647    0.42208    0.99705    1.000
    S20      S        0.58617    0.42219    0.13501    1.000
    Mo21     Mo       0.91977    0.33877    0.06612    1.000
    S22      S        0.83631    0.42196    0.99717    1.000
    S23      S        0.83633    0.42201    0.13507    1.000
    Mo24     Mo       0.16968    0.58876    0.06595    1.000
    S25      S        0.08621    0.67211    0.99709    1.000
    S26      S        0.08639    0.67200    0.13499    1.000
    Mo27     Mo       0.41970    0.58876    0.06561    1.000
    S28      S        0.33618    0.67221    0.99683    1.000
    S29      S        0.33648    0.67214    0.13475    1.000
    Mo30     Mo       0.66972    0.58876    0.06595    1.000
    S31      S        0.58667    0.67223    0.99684    1.000
    S32      S        0.58626    0.67210    0.13478    1.000
    Mo33     Mo       0.91966    0.58868    0.06609    1.000
    S34      S        0.83653    0.67211    0.99710    1.000
    S35      S        0.83624    0.67200    0.13499    1.000
    Mo36     Mo       0.16967    0.83875    0.06608    1.000
    S37      S        0.08638    0.92214    0.99718    1.000
    S38      S        0.08636    0.92209    0.13507    1.000
    Mo39     Mo       0.41969    0.83885    0.06586    1.000
    S40      S        0.33627    0.92228    0.99705    1.000
    S41      S        0.33641    0.92211    0.13495    1.000
    Mo42     Mo       0.66978    0.83885    0.06588    1.000
    S43      S        0.58649    0.92232    0.99698    1.000
    S44      S        0.58628    0.92196    0.13488    1.000
    Mo45     Mo       0.91970    0.83875    0.06608    1.000
    S46      S        0.83663    0.92229    0.99707    1.000
    S47      S        0.83633    0.92210    0.13497    1.000
    C48      C        0.39504    0.55293    0.28693    1.000
    H49      H        0.46735    0.56457    0.25886    1.000
    H50      H        0.33212    0.56439    0.26059    1.000
    H51      H        0.43073    0.62174    0.32015    1.000
    C52      C        0.33561    0.43163    0.31536    1.000
    H53      H        0.26209    0.41957    0.34282    1.000
    H54      H        0.39848    0.42091    0.34239    1.000
    O55      O        0.29150    0.34298    0.26903    1.000
    H56      H        0.25028    0.26524    0.28666    1.000
