# CIF file generated by openbabel 3.1.0, see https://openbabel.org
data_I
_chemical_name_common ''
_cell_length_a 13.105
_cell_length_b 13.105
_cell_length_c 23.0122
_cell_angle_alpha 90
_cell_angle_beta 90
_cell_angle_gamma 120
loop_
    _atom_site_label
    _atom_site_type_symbol
    _atom_site_fract_x
    _atom_site_fract_y
    _atom_site_fract_z
    _atom_site_occupancy
    Mo0      Mo       0.16772    0.08586    0.06695    1.000
    S1       S        0.08438    0.16925    0.99805    1.000
    S2       S        0.08457    0.16935    0.13595    1.000
    Mo3      Mo       0.41784    0.08586    0.06696    1.000
    S4       S        0.33451    0.16933    0.99804    1.000
    S5       S        0.33422    0.16875    0.13587    1.000
    Mo6      Mo       0.66783    0.08591    0.06705    1.000
    S7       S        0.58458    0.16927    0.99806    1.000
    S8       S        0.58448    0.16935    0.13596    1.000
    Mo9      Mo       0.91778    0.08591    0.06705    1.000
    S10      S        0.83447    0.16924    0.99811    1.000
    S11      S        0.83447    0.16924    0.13597    1.000
    Mo12     Mo       0.16790    0.33601    0.06692    1.000
    S13      S        0.08456    0.41958    0.99814    1.000
    S14      S        0.08443    0.41912    0.13604    1.000
    Mo15     Mo       0.41777    0.33587    0.06718    1.000
    S16      S        0.33465    0.41923    0.99810    1.000
    S17      S        0.33407    0.41903    0.13600    1.000
    Mo18     Mo       0.66780    0.33601    0.06694    1.000
    S19      S        0.58428    0.41924    0.99811    1.000
    S20      S        0.58464    0.41904    0.13601    1.000
    Mo21     Mo       0.91781    0.33594    0.06705    1.000
    S22      S        0.83471    0.41958    0.99815    1.000
    S23      S        0.83439    0.41912    0.13605    1.000
    Mo24     Mo       0.16784    0.58600    0.06726    1.000
    S25      S        0.08453    0.66936    0.99834    1.000
    S26      S        0.08457    0.66943    0.13621    1.000
    Mo27     Mo       0.41779    0.58574    0.06723    1.000
    S28      S        0.33443    0.66912    0.99831    1.000
    S29      S        0.33456    0.66917    0.13624    1.000
    Mo30     Mo       0.66764    0.58574    0.06723    1.000
    S31      S        0.58429    0.66888    0.99811    1.000
    S32      S        0.58470    0.66972    0.13595    1.000
    Mo33     Mo       0.91786    0.58600    0.06726    1.000
    S34      S        0.83439    0.66912    0.99831    1.000
    S35      S        0.83431    0.66918    0.13624    1.000
    Mo36     Mo       0.16785    0.83600    0.06720    1.000
    S37      S        0.08433    0.91904    0.99817    1.000
    S38      S        0.08447    0.91942    0.13606    1.000
    Mo39     Mo       0.41779    0.83584    0.06717    1.000
    S40      S        0.33441    0.91905    0.99817    1.000
    S41      S        0.33464    0.91941    0.13606    1.000
    Mo42     Mo       0.66776    0.83583    0.06688    1.000
    S43      S        0.58427    0.91920    0.99811    1.000
    S44      S        0.58458    0.91919    0.13600    1.000
    Mo45     Mo       0.91775    0.83584    0.06717    1.000
    S46      S        0.83462    0.91920    0.99811    1.000
    S47      S        0.83431    0.91920    0.13600    1.000
    C48      C        0.40760    0.31692    0.28503    1.000
    H49      H        0.33172    0.30059    0.25851    1.000
    H50      H        0.46717    0.30097    0.25834    1.000
    H51      H        0.37653    0.25431    0.32112    1.000
    C52      C        0.47034    0.44278    0.30809    1.000
    H53      H        0.54646    0.45938    0.33470    1.000
    H54      H        0.41058    0.45911    0.33466    1.000
    O55      O        0.50997    0.52224    0.25789    1.000
    H56      H        0.55048    0.60319    0.27169    1.000
