# CIF file generated by openbabel 3.1.0, see https://openbabel.org
data_I
_chemical_name_common ''
_cell_length_a 13.105
_cell_length_b 13.105
_cell_length_c 23.0122
_cell_angle_alpha 90
_cell_angle_beta 90
_cell_angle_gamma 120
loop_
    _atom_site_label
    _atom_site_type_symbol
    _atom_site_fract_x
    _atom_site_fract_y
    _atom_site_fract_z
    _atom_site_occupancy
    C0       C        0.41533    0.49078    0.47193    1.000
    H1       H        0.36274    0.41190    0.44584    1.000
    H2       H        0.37755    0.47534    0.51552    1.000
    H3       H        0.41027    0.56412    0.45243    1.000
    C4       C        0.54295    0.51904    0.47465    1.000
    H5       H        0.59614    0.59836    0.50070    1.000
    H6       H        0.58109    0.53393    0.43095    1.000
    O7       O        0.54378    0.41825    0.50134    1.000
    H8       H        0.62464    0.43481    0.50333    1.000
