# CIF file generated by openbabel 3.1.0, see https://openbabel.org
data_I
_chemical_name_common ''
_cell_length_a 13.105
_cell_length_b 13.105
_cell_length_c 23.0122
_cell_angle_alpha 90
_cell_angle_beta 90
_cell_angle_gamma 120
loop_
    _atom_site_label
    _atom_site_type_symbol
    _atom_site_fract_x
    _atom_site_fract_y
    _atom_site_fract_z
    _atom_site_occupancy
    Mo0      Mo       0.16516    0.08243    0.06757    1.000
    S1       S        0.08147    0.16544    0.99856    1.000
    S2       S        0.08214    0.16611    0.13652    1.000
    Mo3      Mo       0.41535    0.08244    0.06751    1.000
    S4       S        0.33174    0.16548    0.99846    1.000
    S5       S        0.33194    0.16579    0.13642    1.000
    Mo6      Mo       0.66523    0.08233    0.06773    1.000
    S7       S        0.58222    0.16585    0.99865    1.000
    S8       S        0.58189    0.16578    0.13659    1.000
    Mo9      Mo       0.91515    0.08236    0.06780    1.000
    S10      S        0.83183    0.16555    0.99877    1.000
    S11      S        0.83187    0.16579    0.13670    1.000
    Mo12     Mo       0.16513    0.33238    0.06729    1.000
    S13      S        0.08180    0.41595    0.99851    1.000
    S14      S        0.08223    0.41590    0.13645    1.000
    Mo15     Mo       0.41519    0.33220    0.06733    1.000
    S16      S        0.33197    0.41576    0.99835    1.000
    S17      S        0.33167    0.41542    0.13615    1.000
    Mo18     Mo       0.66541    0.33247    0.06765    1.000
    S19      S        0.58217    0.41580    0.99860    1.000
    S20      S        0.58161    0.41547    0.13653    1.000
    Mo21     Mo       0.91528    0.33243    0.06765    1.000
    S22      S        0.83216    0.41610    0.99879    1.000
    S23      S        0.83203    0.41569    0.13671    1.000
    Mo24     Mo       0.16546    0.58265    0.06752    1.000
    S25      S        0.08187    0.66605    0.99877    1.000
    S26      S        0.08236    0.66598    0.13671    1.000
    Mo27     Mo       0.41509    0.58245    0.06747    1.000
    S28      S        0.33193    0.66586    0.99847    1.000
    S29      S        0.33192    0.66568    0.13655    1.000
    Mo30     Mo       0.66518    0.58233    0.06766    1.000
    S31      S        0.58206    0.66581    0.99863    1.000
    S32      S        0.58155    0.66555    0.13634    1.000
    Mo33     Mo       0.91538    0.58254    0.06790    1.000
    S34      S        0.83213    0.66595    0.99900    1.000
    S35      S        0.83164    0.66551    0.13696    1.000
    Mo36     Mo       0.16539    0.83263    0.06774    1.000
    S37      S        0.08154    0.91555    0.99886    1.000
    S38      S        0.08224    0.91609    0.13678    1.000
    Mo39     Mo       0.41516    0.83225    0.06760    1.000
    S40      S        0.33196    0.91572    0.99863    1.000
    S41      S        0.33220    0.91592    0.13659    1.000
    Mo42     Mo       0.66522    0.83235    0.06776    1.000
    S43      S        0.58202    0.91567    0.99878    1.000
    S44      S        0.58167    0.91554    0.13675    1.000
    Mo45     Mo       0.91524    0.83240    0.06805    1.000
    S46      S        0.83196    0.91556    0.99898    1.000
    S47      S        0.83177    0.91576    0.13695    1.000
    C48      C        0.58284    0.67222    0.30057    1.000
    H49      H        0.60198    0.73094    0.26339    1.000
    H50      H        0.55921    0.70846    0.33753    1.000
    H51      H        0.66256    0.66931    0.31143    1.000
    C52      C        0.48284    0.54890    0.28624    1.000
    H53      H        0.46125    0.49063    0.32398    1.000
    H54      H        0.50747    0.51055    0.25024    1.000
    O55      O        0.38043    0.55895    0.26971    1.000
    H56      H        0.31564    0.48063    0.26074    1.000
