# CIF file generated by openbabel 3.1.0, see https://openbabel.org
data_I
_chemical_name_common ''
_cell_length_a 13.105
_cell_length_b 13.105
_cell_length_c 23.0122
_cell_angle_alpha 90
_cell_angle_beta 90
_cell_angle_gamma 120
loop_
    _atom_site_label
    _atom_site_type_symbol
    _atom_site_fract_x
    _atom_site_fract_y
    _atom_site_fract_z
    _atom_site_occupancy
    Mo0      Mo       0.16575    0.08380    0.06753    1.000
    S1       S        0.08203    0.16673    0.99846    1.000
    S2       S        0.08213    0.16696    0.13646    1.000
    Mo3      Mo       0.41566    0.08378    0.06733    1.000
    S4       S        0.33228    0.16730    0.99845    1.000
    S5       S        0.33263    0.16727    0.13649    1.000
    Mo6      Mo       0.66565    0.08369    0.06737    1.000
    S7       S        0.58225    0.16691    0.99825    1.000
    S8       S        0.58229    0.16712    0.13628    1.000
    Mo9      Mo       0.91554    0.08358    0.06751    1.000
    S10      S        0.83245    0.16685    0.99836    1.000
    S11      S        0.83234    0.16710    0.13637    1.000
    Mo12     Mo       0.16533    0.33348    0.06739    1.000
    S13      S        0.08255    0.41748    0.99862    1.000
    S14      S        0.08227    0.41695    0.13645    1.000
    Mo15     Mo       0.41558    0.33375    0.06753    1.000
    S16      S        0.33214    0.41711    0.99862    1.000
    S17      S        0.33146    0.41620    0.13644    1.000
    Mo18     Mo       0.66570    0.33357    0.06721    1.000
    S19      S        0.58238    0.41740    0.99862    1.000
    S20      S        0.58256    0.41678    0.13641    1.000
    Mo21     Mo       0.91563    0.33370    0.06738    1.000
    S22      S        0.83237    0.41699    0.99829    1.000
    S23      S        0.83200    0.41679    0.13634    1.000
    Mo24     Mo       0.16586    0.58386    0.06764    1.000
    S25      S        0.08239    0.66700    0.99854    1.000
    S26      S        0.08213    0.66693    0.13647    1.000
    Mo27     Mo       0.41568    0.58347    0.06795    1.000
    S28      S        0.33276    0.66688    0.99883    1.000
    S29      S        0.33242    0.66710    0.13676    1.000
    Mo30     Mo       0.66566    0.58392    0.06780    1.000
    S31      S        0.58221    0.66708    0.99890    1.000
    S32      S        0.58223    0.66699    0.13695    1.000
    Mo33     Mo       0.91550    0.58352    0.06740    1.000
    S34      S        0.83212    0.66718    0.99863    1.000
    S35      S        0.83266    0.66705    0.13653    1.000
    Mo36     Mo       0.16568    0.83361    0.06754    1.000
    S37      S        0.08240    0.91689    0.99872    1.000
    S38      S        0.08254    0.91718    0.13652    1.000
    Mo39     Mo       0.41565    0.83364    0.06767    1.000
    S40      S        0.33222    0.91675    0.99849    1.000
    S41      S        0.33233    0.91717    0.13645    1.000
    Mo42     Mo       0.66554    0.83351    0.06778    1.000
    S43      S        0.58207    0.91656    0.99874    1.000
    S44      S        0.58247    0.91728    0.13657    1.000
    Mo45     Mo       0.91574    0.83373    0.06765    1.000
    S46      S        0.83221    0.91690    0.99873    1.000
    S47      S        0.83233    0.91699    0.13667    1.000
    C48      C        0.67553    0.58620    0.29539    1.000
    H49      H        0.70838    0.61677    0.25150    1.000
    H50      H        0.65811    0.65112    0.31593    1.000
    H51      H        0.74443    0.58140    0.31998    1.000
    C52      C        0.56382    0.46578    0.29357    1.000
    H53      H        0.53340    0.43338    0.33769    1.000
    H54      H        0.57973    0.40121    0.27103    1.000
    O55      O        0.47368    0.47948    0.26253    1.000
    H56      H        0.40149    0.40359    0.26085    1.000
