# CIF file generated by openbabel 3.1.0, see https://openbabel.org
data_I
_chemical_name_common ''
_cell_length_a 13.105
_cell_length_b 13.105
_cell_length_c 23.0122
_cell_angle_alpha 90
_cell_angle_beta 90
_cell_angle_gamma 120
loop_
    _atom_site_label
    _atom_site_type_symbol
    _atom_site_fract_x
    _atom_site_fract_y
    _atom_site_fract_z
    _atom_site_occupancy
    Mo0      Mo       0.16858    0.08323    0.06870    1.000
    S1       S        0.08505    0.16614    0.99955    1.000
    S2       S        0.08525    0.16672    0.13755    1.000
    Mo3      Mo       0.41862    0.08318    0.06831    1.000
    S4       S        0.33484    0.16622    0.99947    1.000
    S5       S        0.33569    0.16682    0.13742    1.000
    Mo6      Mo       0.66854    0.08311    0.06820    1.000
    S7       S        0.58515    0.16631    0.99916    1.000
    S8       S        0.58537    0.16658    0.13715    1.000
    Mo9      Mo       0.91854    0.08300    0.06858    1.000
    S10      S        0.83532    0.16618    0.99939    1.000
    S11      S        0.83512    0.16656    0.13727    1.000
    Mo12     Mo       0.16857    0.33309    0.06823    1.000
    S13      S        0.08534    0.41638    0.99915    1.000
    S14      S        0.08543    0.41670    0.13711    1.000
    Mo15     Mo       0.41862    0.33315    0.06822    1.000
    S16      S        0.33517    0.41615    0.99909    1.000
    S17      S        0.33541    0.41679    0.13706    1.000
    Mo18     Mo       0.66859    0.33305    0.06808    1.000
    S19      S        0.58521    0.41651    0.99921    1.000
    S20      S        0.58541    0.41643    0.13707    1.000
    Mo21     Mo       0.91868    0.33313    0.06818    1.000
    S22      S        0.83537    0.41666    0.99923    1.000
    S23      S        0.83514    0.41624    0.13714    1.000
    Mo24     Mo       0.16857    0.58319    0.06804    1.000
    S25      S        0.08512    0.66671    0.99931    1.000
    S26      S        0.08524    0.66621    0.13730    1.000
    Mo27     Mo       0.41853    0.58314    0.06773    1.000
    S28      S        0.33523    0.66673    0.99897    1.000
    S29      S        0.33531    0.66640    0.13688    1.000
    Mo30     Mo       0.66849    0.58324    0.06818    1.000
    S31      S        0.58550    0.66668    0.99893    1.000
    S32      S        0.58464    0.66639    0.13651    1.000
    Mo33     Mo       0.91862    0.58313    0.06836    1.000
    S34      S        0.83564    0.66699    0.99963    1.000
    S35      S        0.83491    0.66603    0.13755    1.000
    Mo36     Mo       0.16854    0.83311    0.06853    1.000
    S37      S        0.08504    0.91658    0.99985    1.000
    S38      S        0.08542    0.91651    0.13775    1.000
    Mo39     Mo       0.41868    0.83320    0.06810    1.000
    S40      S        0.33496    0.91648    0.99939    1.000
    S41      S        0.33558    0.91642    0.13728    1.000
    Mo42     Mo       0.66857    0.83312    0.06822    1.000
    S43      S        0.58541    0.91652    0.99920    1.000
    S44      S        0.58518    0.91646    0.13719    1.000
    Mo45     Mo       0.91855    0.83322    0.06886    1.000
    S46      S        0.83566    0.91648    0.99967    1.000
    S47      S        0.83475    0.91631    0.13767    1.000
    C48      C        0.48256    0.61993    0.29255    1.000
    H49      H        0.50442    0.67917    0.32970    1.000
    H50      H        0.47740    0.66546    0.25380    1.000
    H51      H        0.39596    0.54240    0.29997    1.000
    C52      C        0.57480    0.58265    0.28463    1.000
    H53      H        0.55078    0.52040    0.24839    1.000
    H54      H        0.58262    0.53998    0.32402    1.000
    O55      O        0.68746    0.68875    0.27222    1.000
    H56      H        0.74771    0.66671    0.26763    1.000
