# CIF file generated by openbabel 3.1.0, see https://openbabel.org
data_I
_chemical_name_common ''
_cell_length_a 13.105
_cell_length_b 13.105
_cell_length_c 23.0122
_cell_angle_alpha 90
_cell_angle_beta 90
_cell_angle_gamma 120
loop_
    _atom_site_label
    _atom_site_type_symbol
    _atom_site_fract_x
    _atom_site_fract_y
    _atom_site_fract_z
    _atom_site_occupancy
    Mo0      Mo       0.16628    0.08306    0.06843    1.000
    S1       S        0.08294    0.16632    0.99943    1.000
    S2       S        0.08281    0.16637    0.13734    1.000
    Mo3      Mo       0.41629    0.08310    0.06847    1.000
    S4       S        0.33293    0.16638    0.99947    1.000
    S5       S        0.33296    0.16649    0.13742    1.000
    Mo6      Mo       0.66619    0.08294    0.06837    1.000
    S7       S        0.58283    0.16630    0.99945    1.000
    S8       S        0.58307    0.16646    0.13737    1.000
    Mo9      Mo       0.91624    0.08303    0.06835    1.000
    S10      S        0.83287    0.16639    0.99942    1.000
    S11      S        0.83281    0.16621    0.13737    1.000
    Mo12     Mo       0.16619    0.33299    0.06834    1.000
    S13      S        0.08283    0.41630    0.99941    1.000
    S14      S        0.08295    0.41635    0.13739    1.000
    Mo15     Mo       0.41632    0.33310    0.06836    1.000
    S16      S        0.33284    0.41623    0.99932    1.000
    S17      S        0.33298    0.41657    0.13721    1.000
    Mo18     Mo       0.66629    0.33305    0.06834    1.000
    S19      S        0.58280    0.41604    0.99925    1.000
    S20      S        0.58317    0.41681    0.13724    1.000
    Mo21     Mo       0.91621    0.33300    0.06842    1.000
    S22      S        0.83298    0.41630    0.99938    1.000
    S23      S        0.83289    0.41648    0.13734    1.000
    Mo24     Mo       0.16627    0.58301    0.06838    1.000
    S25      S        0.08313    0.66648    0.99942    1.000
    S26      S        0.08290    0.66631    0.13733    1.000
    Mo27     Mo       0.41643    0.58313    0.06811    1.000
    S28      S        0.33289    0.66655    0.99940    1.000
    S29      S        0.33313    0.66628    0.13734    1.000
    Mo30     Mo       0.66637    0.58310    0.06789    1.000
    S31      S        0.58292    0.66643    0.99889    1.000
    S32      S        0.58336    0.66657    0.13653    1.000
    Mo33     Mo       0.91635    0.58307    0.06827    1.000
    S34      S        0.83330    0.66656    0.99916    1.000
    S35      S        0.83284    0.66638    0.13709    1.000
    Mo36     Mo       0.16636    0.83309    0.06841    1.000
    S37      S        0.08314    0.91647    0.99939    1.000
    S38      S        0.08289    0.91632    0.13737    1.000
    Mo39     Mo       0.41642    0.83313    0.06844    1.000
    S40      S        0.33305    0.91646    0.99948    1.000
    S41      S        0.33302    0.91642    0.13743    1.000
    Mo42     Mo       0.66632    0.83310    0.06804    1.000
    S43      S        0.58280    0.91650    0.99929    1.000
    S44      S        0.58312    0.91619    0.13733    1.000
    Mo45     Mo       0.91635    0.83312    0.06825    1.000
    S46      S        0.83322    0.91661    0.99925    1.000
    S47      S        0.83273    0.91619    0.13723    1.000
    C48      C        0.65114    0.62321    0.29154    1.000
    H49      H        0.70101    0.67434    0.25376    1.000
    H50      H        0.68660    0.67829    0.33017    1.000
    H51      H        0.66369    0.54709    0.29582    1.000
    C52      C        0.52057    0.58199    0.28442    1.000
    H53      H        0.47159    0.53621    0.32361    1.000
    H54      H        0.48319    0.52105    0.24760    1.000
    O55      O        0.50913    0.68606    0.27420    1.000
    H56      H        0.42589    0.66106    0.27083    1.000
