# CIF file generated by openbabel 3.1.0, see https://openbabel.org
data_I
_chemical_name_common ''
_cell_length_a 19.6668
_cell_length_b 19.6668
_cell_length_c 23.0123
_cell_angle_alpha 90
_cell_angle_beta 90
_cell_angle_gamma 120
loop_
    _atom_site_label
    _atom_site_type_symbol
    _atom_site_fract_x
    _atom_site_fract_y
    _atom_site_fract_z
    _atom_site_occupancy
    C0       C        0.64243    0.61173    0.49857    1.000
    H1       H        0.64555    0.64466    0.53766    1.000
    H2       H        0.65032    0.64867    0.46085    1.000
    H3       H        0.69117    0.59997    0.49962    1.000
    C4       C        0.56396    0.53431    0.49539    1.000
    H5       H        0.56077    0.50178    0.45602    1.000
    H6       H        0.55672    0.49727    0.53293    1.000
    S7       S        0.48091    0.55374    0.49478    1.000
    C8       C        0.39824    0.45105    0.49543    1.000
    H9       H        0.40164    0.42175    0.45611    1.000
    H10      H        0.40563    0.42144    0.53304    1.000
    C11      C        0.31959    0.44963    0.49853    1.000
    H12      H        0.31629    0.47939    0.53758    1.000
    H13      H        0.31160    0.47856    0.46077    1.000
    H14      H        0.27099    0.38907    0.49958    1.000
