# CIF file generated by openbabel 3.1.0, see https://openbabel.org
data_I
_chemical_name_common ''
_cell_length_a 19.6668
_cell_length_b 19.6668
_cell_length_c 23.0123
_cell_angle_alpha 90
_cell_angle_beta 90
_cell_angle_gamma 120
loop_
    _atom_site_label
    _atom_site_type_symbol
    _atom_site_fract_x
    _atom_site_fract_y
    _atom_site_fract_z
    _atom_site_occupancy
    Mo0      Mo       0.11146    0.05682    0.07232    1.000
    S1       S        0.05585    0.11225    0.00331    1.000
    S2       S        0.05595    0.11248    0.14120    1.000
    Mo3      Mo       0.27813    0.05681    0.07239    1.000
    S4       S        0.22251    0.11221    0.00335    1.000
    S5       S        0.22262    0.11253    0.14123    1.000
    Mo6      Mo       0.44479    0.05677    0.07231    1.000
    S7       S        0.38912    0.11217    0.00334    1.000
    S8       S        0.38936    0.11251    0.14122    1.000
    Mo9      Mo       0.61146    0.05676    0.07228    1.000
    S10      S        0.55583    0.11218    0.00331    1.000
    S11      S        0.55597    0.11244    0.14118    1.000
    Mo12     Mo       0.77813    0.05678    0.07225    1.000
    S13      S        0.72253    0.11227    0.00332    1.000
    S14      S        0.72260    0.11237    0.14119    1.000
    Mo15     Mo       0.94480    0.05679    0.07228    1.000
    S16      S        0.88923    0.11231    0.00333    1.000
    S17      S        0.88924    0.11239    0.14119    1.000
    Mo18     Mo       0.11140    0.22348    0.07214    1.000
    S19      S        0.05573    0.27893    0.00318    1.000
    S20      S        0.05592    0.27915    0.14104    1.000
    Mo21     Mo       0.27805    0.22347    0.07211    1.000
    S22      S        0.22232    0.27876    0.00304    1.000
    S23      S        0.22271    0.27937    0.14098    1.000
    Mo24     Mo       0.44473    0.22345    0.07209    1.000
    S25      S        0.38897    0.27865    0.00299    1.000
    S26      S        0.38932    0.27932    0.14093    1.000
    Mo27     Mo       0.61137    0.22343    0.07212    1.000
    S28      S        0.55569    0.27871    0.00300    1.000
    S29      S        0.55594    0.27935    0.14096    1.000
    Mo30     Mo       0.77805    0.22345    0.07218    1.000
    S31      S        0.72245    0.27887    0.00315    1.000
    S32      S        0.72248    0.27912    0.14101    1.000
    Mo33     Mo       0.94473    0.22348    0.07219    1.000
    S34      S        0.88913    0.27897    0.00323    1.000
    S35      S        0.88918    0.27910    0.14110    1.000
    Mo36     Mo       0.11133    0.39016    0.07200    1.000
    S37      S        0.05573    0.44576    0.00313    1.000
    S38      S        0.05579    0.44567    0.14102    1.000
    Mo39     Mo       0.27799    0.39016    0.07162    1.000
    S40      S        0.22231    0.44578    0.00293    1.000
    S41      S        0.22254    0.44560    0.14087    1.000
    Mo42     Mo       0.44466    0.39012    0.07155    1.000
    S43      S        0.38906    0.44574    0.00260    1.000
    S44      S        0.38925    0.44566    0.14028    1.000
    Mo45     Mo       0.61134    0.39013    0.07157    1.000
    S46      S        0.55583    0.44574    0.00258    1.000
    S47      S        0.55556    0.44561    0.14027    1.000
    Mo48     Mo       0.77798    0.39012    0.07195    1.000
    S49      S        0.72261    0.44576    0.00287    1.000
    S50      S        0.72222    0.44556    0.14081    1.000
    Mo51     Mo       0.94466    0.39016    0.07210    1.000
    S52      S        0.88917    0.44575    0.00311    1.000
    S53      S        0.88897    0.44565    0.14100    1.000
    Mo54     Mo       0.11133    0.55681    0.07215    1.000
    S55      S        0.05581    0.61247    0.00328    1.000
    S56      S        0.05569    0.61225    0.14113    1.000
    Mo57     Mo       0.27800    0.55678    0.07202    1.000
    S58      S        0.22244    0.61247    0.00322    1.000
    S59      S        0.22248    0.61223    0.14109    1.000
    Mo60     Mo       0.44480    0.55685    0.07175    1.000
    S61      S        0.38906    0.61244    0.00301    1.000
    S62      S        0.38923    0.61222    0.14092    1.000
    Mo63     Mo       0.61120    0.55682    0.07175    1.000
    S64      S        0.55582    0.61246    0.00275    1.000
    S65      S        0.55572    0.61226    0.14084    1.000
    Mo66     Mo       0.77791    0.55676    0.07198    1.000
    S67      S        0.72254    0.61244    0.00299    1.000
    S68      S        0.72218    0.61223    0.14090    1.000
    Mo69     Mo       0.94461    0.55681    0.07213    1.000
    S70      S        0.88919    0.61248    0.00319    1.000
    S71      S        0.88888    0.61222    0.14106    1.000
    Mo72     Mo       0.11137    0.72348    0.07232    1.000
    S73      S        0.05591    0.77911    0.00340    1.000
    S74      S        0.05575    0.77893    0.14129    1.000
    Mo75     Mo       0.27806    0.72346    0.07226    1.000
    S76      S        0.22252    0.77910    0.00342    1.000
    S77      S        0.22249    0.77892    0.14129    1.000
    Mo78     Mo       0.44474    0.72345    0.07204    1.000
    S79      S        0.38912    0.77908    0.00325    1.000
    S80      S        0.38925    0.77889    0.14114    1.000
    Mo81     Mo       0.61135    0.72338    0.07181    1.000
    S82      S        0.55582    0.77912    0.00306    1.000
    S83      S        0.55586    0.77880    0.14096    1.000
    Mo84     Mo       0.77802    0.72345    0.07203    1.000
    S85      S        0.72266    0.77914    0.00305    1.000
    S86      S        0.72231    0.77880    0.14096    1.000
    Mo87     Mo       0.94470    0.72347    0.07224    1.000
    S88      S        0.88931    0.77911    0.00325    1.000
    S89      S        0.88899    0.77891    0.14112    1.000
    Mo90     Mo       0.11145    0.89013    0.07241    1.000
    S91      S        0.05597    0.94568    0.00342    1.000
    S92      S        0.05586    0.94571    0.14127    1.000
    Mo93     Mo       0.27811    0.89012    0.07242    1.000
    S94      S        0.22256    0.94566    0.00350    1.000
    S95      S        0.22259    0.94572    0.14137    1.000
    Mo96     Mo       0.44478    0.89009    0.07228    1.000
    S97      S        0.38916    0.94563    0.00341    1.000
    S98      S        0.38931    0.94567    0.14128    1.000
    Mo99     Mo       0.61145    0.89008    0.07215    1.000
    S100     S        0.55587    0.94568    0.00331    1.000
    S101     S        0.55594    0.94558    0.14119    1.000
    Mo102    Mo       0.77811    0.89009    0.07215    1.000
    S103     S        0.72261    0.94572    0.00327    1.000
    S104     S        0.72254    0.94557    0.14113    1.000
    Mo105    Mo       0.94478    0.89013    0.07227    1.000
    S106     S        0.88932    0.94573    0.00331    1.000
    S107     S        0.88914    0.94561    0.14119    1.000
    C108     C        0.62239    0.46094    0.29455    1.000
    H109     H        0.64622    0.50034    0.33182    1.000
    H110     H        0.64531    0.49604    0.25505    1.000
    H111     H        0.64409    0.41949    0.29604    1.000
    C112     C        0.53224    0.41613    0.29537    1.000
    H113     H        0.50854    0.37387    0.25963    1.000
    H114     H        0.51016    0.38417    0.33621    1.000
    S115     S        0.49468    0.48557    0.28806    1.000
    C116     C        0.38763    0.41609    0.29494    1.000
    H117     H        0.36894    0.37502    0.25842    1.000
    H118     H        0.37764    0.38273    0.33510    1.000
    C119     C        0.34255    0.46119    0.29569    1.000
    H120     H        0.35760    0.49866    0.33406    1.000
    H121     H        0.35554    0.49830    0.25722    1.000
    H122     H        0.27934    0.41989    0.29631    1.000
