# CIF file generated by openbabel 3.1.0, see https://openbabel.org
data_I
_chemical_name_common ''
_cell_length_a 19.6668
_cell_length_b 19.6668
_cell_length_c 23.0123
_cell_angle_alpha 90
_cell_angle_beta 90
_cell_angle_gamma 120
loop_
    _atom_site_label
    _atom_site_type_symbol
    _atom_site_fract_x
    _atom_site_fract_y
    _atom_site_fract_z
    _atom_site_occupancy
    Mo0      Mo       0.11042    0.05513    0.07239    1.000
    S1       S        0.05489    0.11069    0.00342    1.000
    S2       S        0.05490    0.11075    0.14131    1.000
    Mo3      Mo       0.27704    0.05510    0.07243    1.000
    S4       S        0.22150    0.11061    0.00345    1.000
    S5       S        0.22155    0.11076    0.14133    1.000
    Mo6      Mo       0.44371    0.05515    0.07239    1.000
    S7       S        0.38807    0.11059    0.00342    1.000
    S8       S        0.38822    0.11081    0.14130    1.000
    Mo9      Mo       0.61041    0.05523    0.07237    1.000
    S10      S        0.55477    0.11066    0.00340    1.000
    S11      S        0.55487    0.11085    0.14129    1.000
    Mo12     Mo       0.77712    0.05526    0.07235    1.000
    S13      S        0.72152    0.11077    0.00341    1.000
    S14      S        0.72156    0.11084    0.14129    1.000
    Mo15     Mo       0.94378    0.05521    0.07236    1.000
    S16      S        0.88826    0.11083    0.00344    1.000
    S17      S        0.88823    0.11078    0.14131    1.000
    Mo18     Mo       0.11046    0.22183    0.07232    1.000
    S19      S        0.05490    0.27741    0.00343    1.000
    S20      S        0.05496    0.27741    0.14130    1.000
    Mo21     Mo       0.27710    0.22182    0.07230    1.000
    S22      S        0.22148    0.27723    0.00328    1.000
    S23      S        0.22167    0.27752    0.14121    1.000
    Mo24     Mo       0.44372    0.22183    0.07225    1.000
    S25      S        0.38811    0.27728    0.00329    1.000
    S26      S        0.38829    0.27752    0.14124    1.000
    Mo27     Mo       0.61038    0.22186    0.07223    1.000
    S28      S        0.55471    0.27719    0.00316    1.000
    S29      S        0.55491    0.27762    0.14110    1.000
    Mo30     Mo       0.77710    0.22191    0.07230    1.000
    S31      S        0.72151    0.27738    0.00330    1.000
    S32      S        0.72148    0.27747    0.14118    1.000
    Mo33     Mo       0.94380    0.22190    0.07239    1.000
    S34      S        0.88829    0.27748    0.00343    1.000
    S35      S        0.88817    0.27742    0.14131    1.000
    Mo36     Mo       0.11047    0.38851    0.07236    1.000
    S37      S        0.05492    0.44410    0.00347    1.000
    S38      S        0.05491    0.44401    0.14137    1.000
    Mo39     Mo       0.27714    0.38847    0.07204    1.000
    S40      S        0.22149    0.44412    0.00331    1.000
    S41      S        0.22171    0.44401    0.14125    1.000
    Mo42     Mo       0.44379    0.38854    0.07214    1.000
    S43      S        0.38819    0.44402    0.00309    1.000
    S44      S        0.38821    0.44392    0.14099    1.000
    Mo45     Mo       0.61036    0.38849    0.07185    1.000
    S46      S        0.55477    0.44402    0.00296    1.000
    S47      S        0.55486    0.44396    0.14085    1.000
    Mo48     Mo       0.77708    0.38853    0.07219    1.000
    S49      S        0.72166    0.44410    0.00310    1.000
    S50      S        0.72137    0.44405    0.14103    1.000
    Mo51     Mo       0.94379    0.38854    0.07240    1.000
    S52      S        0.88832    0.44410    0.00338    1.000
    S53      S        0.88808    0.44403    0.14127    1.000
    Mo54     Mo       0.11047    0.55515    0.07246    1.000
    S55      S        0.05494    0.61071    0.00350    1.000
    S56      S        0.05480    0.61062    0.14138    1.000
    Mo57     Mo       0.27713    0.55517    0.07234    1.000
    S58      S        0.22155    0.61075    0.00349    1.000
    S59      S        0.22163    0.61066    0.14140    1.000
    Mo60     Mo       0.44374    0.55506    0.07214    1.000
    S61      S        0.38816    0.61074    0.00331    1.000
    S62      S        0.38835    0.61082    0.14116    1.000
    Mo63     Mo       0.61035    0.55506    0.07202    1.000
    S64      S        0.55478    0.61066    0.00303    1.000
    S65      S        0.55497    0.61078    0.14081    1.000
    Mo66     Mo       0.77710    0.55518    0.07210    1.000
    S67      S        0.72157    0.61075    0.00310    1.000
    S68      S        0.72158    0.61083    0.14092    1.000
    Mo69     Mo       0.94375    0.55516    0.07236    1.000
    S70      S        0.88833    0.61076    0.00331    1.000
    S71      S        0.88802    0.61065    0.14123    1.000
    Mo72     Mo       0.11041    0.72177    0.07248    1.000
    S73      S        0.05491    0.77732    0.00347    1.000
    S74      S        0.05475    0.77731    0.14135    1.000
    Mo75     Mo       0.27712    0.72180    0.07246    1.000
    S76      S        0.22152    0.77733    0.00356    1.000
    S77      S        0.22153    0.77731    0.14144    1.000
    Mo78     Mo       0.44384    0.72189    0.07223    1.000
    S79      S        0.38815    0.77742    0.00343    1.000
    S80      S        0.38834    0.77736    0.14132    1.000
    Mo81     Mo       0.61045    0.72190    0.07185    1.000
    S82      S        0.55484    0.77760    0.00317    1.000
    S83      S        0.55500    0.77729    0.14112    1.000
    Mo84     Mo       0.77708    0.72190    0.07204    1.000
    S85      S        0.72167    0.77759    0.00308    1.000
    S86      S        0.72138    0.77727    0.14102    1.000
    Mo87     Mo       0.94372    0.72180    0.07232    1.000
    S88      S        0.88834    0.77747    0.00328    1.000
    S89      S        0.88801    0.77731    0.14117    1.000
    Mo90     Mo       0.11038    0.88842    0.07241    1.000
    S91      S        0.05491    0.94403    0.00343    1.000
    S92      S        0.05479    0.94398    0.14131    1.000
    Mo93     Mo       0.27705    0.88843    0.07249    1.000
    S94      S        0.22152    0.94396    0.00352    1.000
    S95      S        0.22146    0.94399    0.14140    1.000
    Mo96     Mo       0.44376    0.88851    0.07240    1.000
    S97      S        0.38811    0.94399    0.00349    1.000
    S98      S        0.38823    0.94407    0.14138    1.000
    Mo99     Mo       0.61045    0.88858    0.07227    1.000
    S100     S        0.55483    0.94416    0.00342    1.000
    S101     S        0.55493    0.94410    0.14130    1.000
    Mo102    Mo       0.77710    0.88857    0.07220    1.000
    S103     S        0.72158    0.94424    0.00334    1.000
    S104     S        0.72156    0.94408    0.14121    1.000
    Mo105    Mo       0.94374    0.88850    0.07230    1.000
    S106     S        0.88831    0.94419    0.00335    1.000
    S107     S        0.88813    0.94403    0.14123    1.000
    C108     C        0.65516    0.52810    0.29417    1.000
    H109     H        0.64465    0.49304    0.25486    1.000
    H110     H        0.63737    0.48866    0.33153    1.000
    H111     H        0.71831    0.56903    0.29718    1.000
    C112     C        0.61068    0.57374    0.29261    1.000
    H113     H        0.61937    0.60623    0.33304    1.000
    H114     H        0.63095    0.61564    0.25660    1.000
    S115     S        0.50372    0.50503    0.28388    1.000
    C116     C        0.46631    0.57430    0.29320    1.000
    H117     H        0.49051    0.60659    0.33366    1.000
    H118     H        0.48800    0.61633    0.25726    1.000
    C119     C        0.37615    0.52933    0.29507    1.000
    H120     H        0.35116    0.49382    0.25602    1.000
    H121     H        0.35445    0.49037    0.33271    1.000
    H122     H        0.35446    0.57072    0.29778    1.000
