# CIF file generated by openbabel 3.1.0, see https://openbabel.org
data_I
_chemical_name_common ''
_cell_length_a 19.6668
_cell_length_b 19.6668
_cell_length_c 23.0123
_cell_angle_alpha 90
_cell_angle_beta 90
_cell_angle_gamma 120
loop_
    _atom_site_label
    _atom_site_type_symbol
    _atom_site_fract_x
    _atom_site_fract_y
    _atom_site_fract_z
    _atom_site_occupancy
    Mo0      Mo       0.11028    0.05455    0.07255    1.000
    S1       S        0.05464    0.10999    0.00360    1.000
    S2       S        0.05480    0.11020    0.14147    1.000
    Mo3      Mo       0.27697    0.05455    0.07250    1.000
    S4       S        0.22130    0.10993    0.00351    1.000
    S5       S        0.22152    0.11030    0.14138    1.000
    Mo6      Mo       0.44365    0.05455    0.07254    1.000
    S7       S        0.38802    0.10993    0.00351    1.000
    S8       S        0.38817    0.11030    0.14137    1.000
    Mo9      Mo       0.61029    0.05451    0.07260    1.000
    S10      S        0.55474    0.10999    0.00359    1.000
    S11      S        0.55478    0.11021    0.14146    1.000
    Mo12     Mo       0.77693    0.05450    0.07260    1.000
    S13      S        0.72137    0.11001    0.00365    1.000
    S14      S        0.72142    0.11013    0.14153    1.000
    Mo15     Mo       0.94359    0.05451    0.07259    1.000
    S16      S        0.88801    0.11002    0.00365    1.000
    S17      S        0.88808    0.11013    0.14153    1.000
    Mo18     Mo       0.11029    0.22121    0.07239    1.000
    S19      S        0.05461    0.27664    0.00345    1.000
    S20      S        0.05486    0.27691    0.14132    1.000
    Mo21     Mo       0.27697    0.22122    0.07223    1.000
    S22      S        0.22118    0.27650    0.00323    1.000
    S23      S        0.22164    0.27705    0.14111    1.000
    Mo24     Mo       0.44364    0.22123    0.07222    1.000
    S25      S        0.38791    0.27644    0.00310    1.000
    S26      S        0.38825    0.27709    0.14099    1.000
    Mo27     Mo       0.61031    0.22121    0.07237    1.000
    S28      S        0.55471    0.27650    0.00322    1.000
    S29      S        0.55482    0.27706    0.14109    1.000
    Mo30     Mo       0.77696    0.22120    0.07249    1.000
    S31      S        0.72141    0.27662    0.00342    1.000
    S32      S        0.72144    0.27693    0.14130    1.000
    Mo33     Mo       0.94362    0.22120    0.07250    1.000
    S34      S        0.88805    0.27669    0.00353    1.000
    S35      S        0.88811    0.27684    0.14140    1.000
    Mo36     Mo       0.11029    0.38788    0.07225    1.000
    S37      S        0.05467    0.44346    0.00340    1.000
    S38      S        0.05483    0.44347    0.14127    1.000
    Mo39     Mo       0.27696    0.38788    0.07190    1.000
    S40      S        0.22116    0.44330    0.00305    1.000
    S41      S        0.22166    0.44356    0.14095    1.000
    Mo42     Mo       0.44362    0.38786    0.07172    1.000
    S43      S        0.38784    0.44313    0.00264    1.000
    S44      S        0.38833    0.44371    0.14061    1.000
    Mo45     Mo       0.61030    0.38789    0.07187    1.000
    S46      S        0.55466    0.44314    0.00264    1.000
    S47      S        0.55477    0.44373    0.14059    1.000
    Mo48     Mo       0.77697    0.38789    0.07221    1.000
    S49      S        0.72152    0.44331    0.00300    1.000
    S50      S        0.72130    0.44358    0.14091    1.000
    Mo51     Mo       0.94363    0.38789    0.07238    1.000
    S52      S        0.88818    0.44345    0.00337    1.000
    S53      S        0.88799    0.44346    0.14125    1.000
    Mo54     Mo       0.11030    0.55458    0.07234    1.000
    S55      S        0.05479    0.61022    0.00346    1.000
    S56      S        0.05469    0.61008    0.14133    1.000
    Mo57     Mo       0.27688    0.55450    0.07186    1.000
    S58      S        0.22126    0.61025    0.00325    1.000
    S59      S        0.22157    0.61001    0.14117    1.000
    Mo60     Mo       0.44362    0.55447    0.07129    1.000
    S61      S        0.38792    0.61029    0.00274    1.000
    S62      S        0.38810    0.60973    0.14048    1.000
    Mo63     Mo       0.61022    0.55449    0.07129    1.000
    S64      S        0.55485    0.61037    0.00242    1.000
    S65      S        0.55462    0.60986    0.14017    1.000
    Mo66     Mo       0.77698    0.55451    0.07181    1.000
    S67      S        0.72174    0.61032    0.00272    1.000
    S68      S        0.72102    0.60975    0.14046    1.000
    Mo69     Mo       0.94363    0.55457    0.07232    1.000
    S70      S        0.88836    0.61026    0.00321    1.000
    S71      S        0.88777    0.61000    0.14113    1.000
    Mo72     Mo       0.11031    0.72125    0.07246    1.000
    S73      S        0.05485    0.77690    0.00352    1.000
    S74      S        0.05460    0.77671    0.14138    1.000
    Mo75     Mo       0.27699    0.72122    0.07234    1.000
    S76      S        0.22142    0.77688    0.00352    1.000
    S77      S        0.22146    0.77672    0.14139    1.000
    Mo78     Mo       0.44372    0.72121    0.07197    1.000
    S79      S        0.38808    0.77699    0.00336    1.000
    S80      S        0.38819    0.77652    0.14126    1.000
    Mo81     Mo       0.61029    0.72120    0.07185    1.000
    S82      S        0.55484    0.77705    0.00310    1.000
    S83      S        0.55472    0.77634    0.14115    1.000
    Mo84     Mo       0.77689    0.72123    0.07196    1.000
    S85      S        0.72161    0.77707    0.00309    1.000
    S86      S        0.72103    0.77636    0.14113    1.000
    Mo87     Mo       0.94359    0.72122    0.07232    1.000
    S88      S        0.88831    0.77702    0.00334    1.000
    S89      S        0.88772    0.77653    0.14125    1.000
    Mo90     Mo       0.11029    0.88791    0.07254    1.000
    S91      S        0.05475    0.94348    0.00361    1.000
    S92      S        0.05469    0.94342    0.14149    1.000
    Mo93     Mo       0.27698    0.88791    0.07253    1.000
    S94      S        0.22140    0.94345    0.00359    1.000
    S95      S        0.22141    0.94346    0.14148    1.000
    Mo96     Mo       0.44365    0.88787    0.07251    1.000
    S97      S        0.38810    0.94347    0.00360    1.000
    S98      S        0.38808    0.94341    0.14148    1.000
    Mo99     Mo       0.61026    0.88777    0.07239    1.000
    S100     S        0.55475    0.94351    0.00359    1.000
    S101     S        0.55473    0.94326    0.14149    1.000
    Mo102    Mo       0.77690    0.88779    0.07238    1.000
    S103     S        0.72145    0.94355    0.00355    1.000
    S104     S        0.72129    0.94319    0.14146    1.000
    Mo105    Mo       0.94360    0.88788    0.07250    1.000
    S106     S        0.88814    0.94352    0.00358    1.000
    S107     S        0.88789    0.94326    0.14148    1.000
    C108     C        0.71476    0.65315    0.29637    1.000
    H109     H        0.73418    0.68531    0.33732    1.000
    H110     H        0.74122    0.69516    0.26075    1.000
    H111     H        0.73700    0.61220    0.29407    1.000
    C112     C        0.62485    0.60826    0.29197    1.000
    H113     H        0.60521    0.57237    0.25256    1.000
    H114     H        0.59849    0.56958    0.32940    1.000
    S115     S        0.58794    0.67852    0.29016    1.000
    C116     C        0.48075    0.60846    0.29182    1.000
    H117     H        0.46456    0.57257    0.25240    1.000
    H118     H        0.46825    0.56975    0.32924    1.000
    C119     C        0.43572    0.65338    0.29610    1.000
    H120     H        0.44828    0.68541    0.33710    1.000
    H121     H        0.45149    0.69553    0.26056    1.000
    H122     H        0.37252    0.61247    0.29362    1.000
