# CIF file generated by openbabel 3.1.0, see https://openbabel.org
data_I
_chemical_name_common ''
_cell_length_a 13.105
_cell_length_b 13.105
_cell_length_c 23.0122
_cell_angle_alpha 90
_cell_angle_beta 90
_cell_angle_gamma 120
loop_
    _atom_site_label
    _atom_site_type_symbol
    _atom_site_fract_x
    _atom_site_fract_y
    _atom_site_fract_z
    _atom_site_occupancy
    Mo0      Mo       0.16676    0.08389    0.06832    1.000
    S1       S        0.08335    0.16705    0.99930    1.000
    S2       S        0.08364    0.16750    0.13725    1.000
    Mo3      Mo       0.41679    0.08394    0.06833    1.000
    S4       S        0.33334    0.16705    0.99930    1.000
    S5       S        0.33350    0.16749    0.13725    1.000
    Mo6      Mo       0.66679    0.08395    0.06833    1.000
    S7       S        0.58347    0.16727    0.99940    1.000
    S8       S        0.58344    0.16724    0.13730    1.000
    Mo9      Mo       0.91679    0.08394    0.06833    1.000
    S10      S        0.83344    0.16728    0.99940    1.000
    S11      S        0.83344    0.16725    0.13730    1.000
    Mo12     Mo       0.16694    0.33395    0.06803    1.000
    S13      S        0.08334    0.41728    0.99928    1.000
    S14      S        0.08378    0.41734    0.13723    1.000
    Mo15     Mo       0.41666    0.33395    0.06803    1.000
    S16      S        0.33347    0.41729    0.99895    1.000
    S17      S        0.33351    0.41737    0.13674    1.000
    Mo18     Mo       0.66677    0.33392    0.06834    1.000
    S19      S        0.58359    0.41728    0.99928    1.000
    S20      S        0.58320    0.41734    0.13722    1.000
    Mo21     Mo       0.91680    0.33393    0.06834    1.000
    S22      S        0.83344    0.41723    0.99940    1.000
    S23      S        0.83349    0.41733    0.13728    1.000
    Mo24     Mo       0.16693    0.58404    0.06819    1.000
    S25      S        0.08341    0.66729    0.99931    1.000
    S26      S        0.08357    0.66726    0.13723    1.000
    Mo27     Mo       0.41678    0.58391    0.06815    1.000
    S28      S        0.33344    0.66730    0.99916    1.000
    S29      S        0.33360    0.66719    0.13715    1.000
    Mo30     Mo       0.66676    0.58404    0.06819    1.000
    S31      S        0.58351    0.66730    0.99916    1.000
    S32      S        0.58324    0.66719    0.13715    1.000
    Mo33     Mo       0.91679    0.58395    0.06830    1.000
    S34      S        0.83352    0.66730    0.99931    1.000
    S35      S        0.83333    0.66726    0.13723    1.000
    Mo36     Mo       0.16674    0.83392    0.06828    1.000
    S37      S        0.08345    0.91727    0.99934    1.000
    S38      S        0.08343    0.91722    0.13727    1.000
    Mo39     Mo       0.41673    0.83383    0.06815    1.000
    S40      S        0.33339    0.91732    0.99931    1.000
    S41      S        0.33342    0.91709    0.13721    1.000
    Mo42     Mo       0.66675    0.83384    0.06815    1.000
    S43      S        0.58352    0.91740    0.99928    1.000
    S44      S        0.58335    0.91707    0.13719    1.000
    Mo45     Mo       0.91682    0.83392    0.06828    1.000
    S46      S        0.83356    0.91732    0.99931    1.000
    S47      S        0.83332    0.91710    0.13721    1.000
    N48      N        0.40715    0.56475    0.26524    1.000
    C49      C        0.34623    0.44275    0.28853    1.000
    H50      H        0.36722    0.60984    0.27931    1.000
    H51      H        0.49217    0.60994    0.27932    1.000
    H52      H        0.25595    0.39637    0.27214    1.000
    H53      H        0.34327    0.43729    0.33613    1.000
    H54      H        0.39059    0.39667    0.27236    1.000
