# CIF file generated by openbabel 3.1.0, see https://openbabel.org
data_I
_chemical_name_common ''
_cell_length_a 13.105
_cell_length_b 13.105
_cell_length_c 23.0122
_cell_angle_alpha 90
_cell_angle_beta 90
_cell_angle_gamma 120
loop_
    _atom_site_label
    _atom_site_type_symbol
    _atom_site_fract_x
    _atom_site_fract_y
    _atom_site_fract_z
    _atom_site_occupancy
    Mo0      Mo       0.16753    0.08532    0.06772    1.000
    S1       S        0.08419    0.16855    0.99870    1.000
    S2       S        0.08428    0.16881    0.13666    1.000
    Mo3      Mo       0.41757    0.08539    0.06763    1.000
    S4       S        0.33409    0.16855    0.99870    1.000
    S5       S        0.33426    0.16881    0.13665    1.000
    Mo6      Mo       0.66752    0.08532    0.06757    1.000
    S7       S        0.58424    0.16879    0.99869    1.000
    S8       S        0.58422    0.16861    0.13659    1.000
    Mo9      Mo       0.91754    0.08539    0.06763    1.000
    S10      S        0.83428    0.16879    0.99869    1.000
    S11      S        0.83412    0.16861    0.13659    1.000
    Mo12     Mo       0.16777    0.33540    0.06753    1.000
    S13      S        0.08406    0.41856    0.99867    1.000
    S14      S        0.08441    0.41870    0.13663    1.000
    Mo15     Mo       0.41736    0.33540    0.06752    1.000
    S16      S        0.33404    0.41834    0.99825    1.000
    S17      S        0.33422    0.41871    0.13619    1.000
    Mo18     Mo       0.66755    0.33536    0.06769    1.000
    S19      S        0.58424    0.41857    0.99867    1.000
    S20      S        0.58402    0.41870    0.13663    1.000
    Mo21     Mo       0.91754    0.33536    0.06770    1.000
    S22      S        0.83422    0.41871    0.99875    1.000
    S23      S        0.83428    0.41883    0.13664    1.000
    Mo24     Mo       0.16750    0.58531    0.06753    1.000
    S25      S        0.08418    0.66873    0.99864    1.000
    S26      S        0.08432    0.66873    0.13654    1.000
    Mo27     Mo       0.41735    0.58497    0.06718    1.000
    S28      S        0.33398    0.66855    0.99841    1.000
    S29      S        0.33427    0.66848    0.13631    1.000
    Mo30     Mo       0.66754    0.58531    0.06753    1.000
    S31      S        0.58430    0.66855    0.99842    1.000
    S32      S        0.58394    0.66847    0.13632    1.000
    Mo33     Mo       0.91758    0.58544    0.06763    1.000
    S34      S        0.83428    0.66873    0.99864    1.000
    S35      S        0.83415    0.66873    0.13654    1.000
    Mo36     Mo       0.16756    0.83539    0.06760    1.000
    S37      S        0.08426    0.91879    0.99868    1.000
    S38      S        0.08418    0.91862    0.13662    1.000
    Mo39     Mo       0.41752    0.83526    0.06743    1.000
    S40      S        0.33420    0.91879    0.99862    1.000
    S41      S        0.33428    0.91857    0.13651    1.000
    Mo42     Mo       0.66747    0.83526    0.06743    1.000
    S43      S        0.58423    0.91872    0.99852    1.000
    S44      S        0.58410    0.91846    0.13642    1.000
    Mo45     Mo       0.91757    0.83539    0.06760    1.000
    S46      S        0.83432    0.91879    0.99862    1.000
    S47      S        0.83402    0.91857    0.13651    1.000
    N48      N        0.32644    0.40382    0.28448    1.000
    C49      C        0.39185    0.53465    0.28338    1.000
    H50      H        0.37330    0.37284    0.30598    1.000
    H51      H        0.24852    0.37284    0.30590    1.000
    H52      H        0.47439    0.56507    0.25974    1.000
    H53      H        0.41270    0.57649    0.32639    1.000
    H54      H        0.33988    0.56511    0.25964    1.000
