# CIF file generated by openbabel 3.1.0, see https://openbabel.org
data_I
_chemical_name_common ''
_cell_length_a 13.105
_cell_length_b 13.105
_cell_length_c 23.0122
_cell_angle_alpha 90
_cell_angle_beta 90
_cell_angle_gamma 120
loop_
    _atom_site_label
    _atom_site_type_symbol
    _atom_site_fract_x
    _atom_site_fract_y
    _atom_site_fract_z
    _atom_site_occupancy
    Mo0      Mo       0.16619    0.08259    0.06914    1.000
    S1       S        0.08278    0.16580    0.00015    1.000
    S2       S        0.08297    0.16610    0.13807    1.000
    Mo3      Mo       0.41620    0.08260    0.06919    1.000
    S4       S        0.33281    0.16580    0.00015    1.000
    S5       S        0.33293    0.16611    0.13807    1.000
    Mo6      Mo       0.66613    0.08247    0.06910    1.000
    S7       S        0.58270    0.16566    0.00013    1.000
    S8       S        0.58294    0.16600    0.13808    1.000
    Mo9      Mo       0.91619    0.08259    0.06919    1.000
    S10      S        0.83277    0.16566    0.00013    1.000
    S11      S        0.83285    0.16599    0.13808    1.000
    Mo12     Mo       0.16620    0.33261    0.06898    1.000
    S13      S        0.08275    0.41573    0.99993    1.000
    S14      S        0.08288    0.41609    0.13788    1.000
    Mo15     Mo       0.41620    0.33261    0.06898    1.000
    S16      S        0.33304    0.41629    0.00011    1.000
    S17      S        0.33271    0.41562    0.13793    1.000
    Mo18     Mo       0.66618    0.33250    0.06897    1.000
    S19      S        0.58278    0.41572    0.99993    1.000
    S20      S        0.58301    0.41609    0.13788    1.000
    Mo21     Mo       0.91612    0.33250    0.06897    1.000
    S22      S        0.83279    0.41579    0.99997    1.000
    S23      S        0.83287    0.41594    0.13788    1.000
    Mo24     Mo       0.16619    0.58264    0.06872    1.000
    S25      S        0.08290    0.66621    0.99995    1.000
    S26      S        0.08278    0.66573    0.13790    1.000
    Mo27     Mo       0.41631    0.58283    0.06935    1.000
    S28      S        0.33323    0.66617    0.00011    1.000
    S29      S        0.33206    0.66560    0.13804    1.000
    Mo30     Mo       0.66624    0.58264    0.06871    1.000
    S31      S        0.58273    0.66617    0.00011    1.000
    S32      S        0.58334    0.66560    0.13803    1.000
    Mo33     Mo       0.91617    0.58256    0.06890    1.000
    S34      S        0.83311    0.66621    0.99995    1.000
    S35      S        0.83273    0.66572    0.13790    1.000
    Mo36     Mo       0.16614    0.83263    0.06913    1.000
    S37      S        0.08291    0.91602    0.00016    1.000
    S38      S        0.08287    0.91594    0.13813    1.000
    Mo39     Mo       0.41616    0.83243    0.06939    1.000
    S40      S        0.33296    0.91588    0.00032    1.000
    S41      S        0.33273    0.91591    0.13824    1.000
    Mo42     Mo       0.66606    0.83242    0.06938    1.000
    S43      S        0.58275    0.91572    0.00034    1.000
    S44      S        0.58292    0.91604    0.13833    1.000
    Mo45     Mo       0.91627    0.83262    0.06913    1.000
    S46      S        0.83272    0.91588    0.00031    1.000
    S47      S        0.83296    0.91590    0.13824    1.000
    N48      N        0.48052    0.71038    0.26374    1.000
    C49      C        0.41716    0.58361    0.27981    1.000
    H50      H        0.43900    0.75196    0.28045    1.000
    H51      H        0.56387    0.75181    0.28014    1.000
    H52      H        0.32883    0.54161    0.26105    1.000
    H53      H        0.40892    0.56682    0.32675    1.000
    H54      H        0.46338    0.54161    0.26091    1.000
