# CIF file generated by openbabel 3.1.0, see https://openbabel.org
data_I
_chemical_name_common ''
_cell_length_a 13.105
_cell_length_b 13.105
_cell_length_c 23.0122
_cell_angle_alpha 90
_cell_angle_beta 90
_cell_angle_gamma 120
loop_
    _atom_site_label
    _atom_site_type_symbol
    _atom_site_fract_x
    _atom_site_fract_y
    _atom_site_fract_z
    _atom_site_occupancy
    Mo0      Mo       0.16628    0.08338    0.06848    1.000
    S1       S        0.08286    0.16647    0.99940    1.000
    S2       S        0.08325    0.16706    0.13736    1.000
    Mo3      Mo       0.41651    0.08368    0.06856    1.000
    S4       S        0.33308    0.16677    0.99955    1.000
    S5       S        0.33294    0.16684    0.13750    1.000
    Mo6      Mo       0.66660    0.08385    0.06860    1.000
    S7       S        0.58329    0.16713    0.99963    1.000
    S8       S        0.58323    0.16715    0.13752    1.000
    Mo9      Mo       0.91637    0.08355    0.06850    1.000
    S10      S        0.83320    0.16707    0.99960    1.000
    S11      S        0.83337    0.16712    0.13748    1.000
    Mo12     Mo       0.16644    0.33344    0.06805    1.000
    S13      S        0.08320    0.41730    0.99947    1.000
    S14      S        0.08333    0.41678    0.13740    1.000
    Mo15     Mo       0.41620    0.33352    0.06849    1.000
    S16      S        0.33328    0.41696    0.99930    1.000
    S17      S        0.33231    0.41608    0.13712    1.000
    Mo18     Mo       0.66650    0.33376    0.06856    1.000
    S19      S        0.58309    0.41704    0.99967    1.000
    S20      S        0.58280    0.41680    0.13761    1.000
    Mo21     Mo       0.91655    0.33376    0.06851    1.000
    S22      S        0.83321    0.41720    0.99963    1.000
    S23      S        0.83317    0.41702    0.13756    1.000
    Mo24     Mo       0.16649    0.58372    0.06861    1.000
    S25      S        0.08296    0.66695    0.99971    1.000
    S26      S        0.08309    0.66696    0.13760    1.000
    Mo27     Mo       0.41623    0.58326    0.06871    1.000
    S28      S        0.33318    0.66707    0.99971    1.000
    S29      S        0.33323    0.66719    0.13755    1.000
    Mo30     Mo       0.66605    0.58362    0.06872    1.000
    S31      S        0.58270    0.66678    0.99964    1.000
    S32      S        0.58279    0.66709    0.13764    1.000
    Mo33     Mo       0.91631    0.58366    0.06868    1.000
    S34      S        0.83270    0.66678    0.99974    1.000
    S35      S        0.83275    0.66690    0.13763    1.000
    Mo36     Mo       0.16626    0.83361    0.06861    1.000
    S37      S        0.08272    0.91661    0.99961    1.000
    S38      S        0.08286    0.91690    0.13751    1.000
    Mo39     Mo       0.41642    0.83382    0.06860    1.000
    S40      S        0.33297    0.91697    0.99963    1.000
    S41      S        0.33299    0.91709    0.13755    1.000
    Mo42     Mo       0.66616    0.83353    0.06848    1.000
    S43      S        0.58303    0.91721    0.99965    1.000
    S44      S        0.58315    0.91714    0.13756    1.000
    Mo45     Mo       0.91614    0.83349    0.06861    1.000
    S46      S        0.83285    0.91679    0.99959    1.000
    S47      S        0.83280    0.91687    0.13751    1.000
    N48      N        0.43688    0.51381    0.26695    1.000
    C49      C        0.32752    0.51412    0.28373    1.000
    H50      H        0.50930    0.58517    0.28371    1.000
    H51      H        0.43625    0.44085    0.28270    1.000
    H52      H        0.33082    0.59301    0.26604    1.000
    H53      H        0.31271    0.51181    0.33076    1.000
    H54      H        0.25193    0.43780    0.26419    1.000
