# CIF file generated by openbabel 3.1.0, see https://openbabel.org
data_I
_chemical_name_common ''
_cell_length_a 13.105
_cell_length_b 13.105
_cell_length_c 23.0122
_cell_angle_alpha 90
_cell_angle_beta 90
_cell_angle_gamma 120
loop_
    _atom_site_label
    _atom_site_type_symbol
    _atom_site_fract_x
    _atom_site_fract_y
    _atom_site_fract_z
    _atom_site_occupancy
    Mo0      Mo       0.16539    0.08103    0.06901    1.000
    S1       S        0.08194    0.16422    0.00001    1.000
    S2       S        0.08210    0.16447    0.13793    1.000
    Mo3      Mo       0.41545    0.08107    0.06904    1.000
    S4       S        0.33202    0.16420    0.00000    1.000
    S5       S        0.33213    0.16447    0.13792    1.000
    Mo6      Mo       0.66543    0.08110    0.06910    1.000
    S7       S        0.58212    0.16440    0.00012    1.000
    S8       S        0.58209    0.16447    0.13801    1.000
    Mo9      Mo       0.91538    0.08107    0.06905    1.000
    S10      S        0.83204    0.16439    0.00012    1.000
    S11      S        0.83213    0.16447    0.13802    1.000
    Mo12     Mo       0.16534    0.33098    0.06885    1.000
    S13      S        0.08194    0.41438    0.99999    1.000
    S14      S        0.08217    0.41439    0.13795    1.000
    Mo15     Mo       0.41541    0.33097    0.06883    1.000
    S16      S        0.33215    0.41455    0.99992    1.000
    S17      S        0.33179    0.41377    0.13767    1.000
    Mo18     Mo       0.66544    0.33108    0.06905    1.000
    S19      S        0.58223    0.41440    0.99999    1.000
    S20      S        0.58198    0.41436    0.13795    1.000
    Mo21     Mo       0.91541    0.33108    0.06905    1.000
    S22      S        0.83211    0.41444    0.00013    1.000
    S23      S        0.83208    0.41439    0.13802    1.000
    Mo24     Mo       0.16537    0.58106    0.06896    1.000
    S25      S        0.08202    0.66445    0.00010    1.000
    S26      S        0.08208    0.66436    0.13801    1.000
    Mo27     Mo       0.41536    0.58097    0.06913    1.000
    S28      S        0.33225    0.66449    0.00012    1.000
    S29      S        0.33175    0.66431    0.13797    1.000
    Mo30     Mo       0.66543    0.58105    0.06898    1.000
    S31      S        0.58200    0.66449    0.00015    1.000
    S32      S        0.58225    0.66426    0.13801    1.000
    Mo33     Mo       0.91540    0.58105    0.06908    1.000
    S34      S        0.83216    0.66444    0.00011    1.000
    S35      S        0.83204    0.66435    0.13802    1.000
    Mo36     Mo       0.16538    0.83106    0.06909    1.000
    S37      S        0.08204    0.91434    0.00012    1.000
    S38      S        0.08212    0.91447    0.13802    1.000
    Mo39     Mo       0.41545    0.83109    0.06912    1.000
    S40      S        0.33208    0.91434    0.00015    1.000
    S41      S        0.33207    0.91448    0.13806    1.000
    Mo42     Mo       0.66539    0.83107    0.06915    1.000
    S43      S        0.58211    0.91441    0.00020    1.000
    S44      S        0.58210    0.91448    0.13815    1.000
    Mo45     Mo       0.91544    0.83106    0.06910    1.000
    S46      S        0.83199    0.91432    0.00017    1.000
    S47      S        0.83218    0.91448    0.13807    1.000
    N48      N        0.48555    0.72246    0.28408    1.000
    C49      C        0.41701    0.59192    0.28529    1.000
    H50      H        0.56327    0.75159    0.26263    1.000
    H51      H        0.44050    0.75579    0.26275    1.000
    H52      H        0.46733    0.55929    0.30874    1.000
    H53      H        0.39472    0.54973    0.24232    1.000
    H54      H        0.33491    0.56377    0.30887    1.000
