# CIF file generated by openbabel 3.1.0, see https://openbabel.org
data_I
_chemical_name_common ''
_cell_length_a 13.105
_cell_length_b 13.105
_cell_length_c 23.0122
_cell_angle_alpha 90
_cell_angle_beta 90
_cell_angle_gamma 120
loop_
    _atom_site_label
    _atom_site_type_symbol
    _atom_site_fract_x
    _atom_site_fract_y
    _atom_site_fract_z
    _atom_site_occupancy
    Mo0      Mo       0.16746    0.08490    0.06796    1.000
    S1       S        0.08399    0.16808    0.99898    1.000
    S2       S        0.08417    0.16832    0.13691    1.000
    Mo3      Mo       0.41757    0.08498    0.06798    1.000
    S4       S        0.33410    0.16808    0.99898    1.000
    S5       S        0.33416    0.16833    0.13691    1.000
    Mo6      Mo       0.66750    0.08496    0.06797    1.000
    S7       S        0.58425    0.16839    0.99904    1.000
    S8       S        0.58422    0.16831    0.13695    1.000
    Mo9      Mo       0.91743    0.08496    0.06797    1.000
    S10      S        0.83416    0.16838    0.99904    1.000
    S11      S        0.83411    0.16830    0.13695    1.000
    Mo12     Mo       0.16739    0.33483    0.06780    1.000
    S13      S        0.08396    0.41822    0.99897    1.000
    S14      S        0.08427    0.41827    0.13692    1.000
    Mo15     Mo       0.41744    0.33483    0.06779    1.000
    S16      S        0.33398    0.41798    0.99872    1.000
    S17      S        0.33410    0.41817    0.13652    1.000
    Mo18     Mo       0.66755    0.33500    0.06801    1.000
    S19      S        0.58426    0.41821    0.99897    1.000
    S20      S        0.58401    0.41827    0.13691    1.000
    Mo21     Mo       0.91747    0.33500    0.06801    1.000
    S22      S        0.83420    0.41837    0.99906    1.000
    S23      S        0.83424    0.41847    0.13696    1.000
    Mo24     Mo       0.16742    0.58491    0.06788    1.000
    S25      S        0.08417    0.66835    0.99897    1.000
    S26      S        0.08427    0.66838    0.13688    1.000
    Mo27     Mo       0.41740    0.58476    0.06764    1.000
    S28      S        0.33404    0.66826    0.99885    1.000
    S29      S        0.33417    0.66808    0.13672    1.000
    Mo30     Mo       0.66751    0.58491    0.06786    1.000
    S31      S        0.58423    0.66824    0.99883    1.000
    S32      S        0.58395    0.66808    0.13670    1.000
    Mo33     Mo       0.91755    0.58508    0.06796    1.000
    S34      S        0.83421    0.66834    0.99896    1.000
    S35      S        0.83412    0.66836    0.13687    1.000
    Mo36     Mo       0.16756    0.83501    0.06792    1.000
    S37      S        0.08418    0.91831    0.99898    1.000
    S38      S        0.08414    0.91825    0.13689    1.000
    Mo39     Mo       0.41757    0.83497    0.06786    1.000
    S40      S        0.33426    0.91838    0.99898    1.000
    S41      S        0.33425    0.91824    0.13687    1.000
    Mo42     Mo       0.66743    0.83495    0.06785    1.000
    S43      S        0.58420    0.91838    0.99893    1.000
    S44      S        0.58412    0.91819    0.13688    1.000
    Mo45     Mo       0.91748    0.83499    0.06792    1.000
    S46      S        0.83416    0.91836    0.99897    1.000
    S47      S        0.83402    0.91821    0.13687    1.000
    N48      N        0.41025    0.56638    0.27986    1.000
    C49      C        0.34216    0.44257    0.30008    1.000
    H50      H        0.48053    0.57988    0.25523    1.000
    H51      H        0.35974    0.58784    0.25472    1.000
    H52      H        0.39904    0.42355    0.32712    1.000
    H53      H        0.30599    0.37644    0.26515    1.000
    H54      H        0.26902    0.43235    0.32696    1.000
