# CIF file generated by openbabel 3.1.0, see https://openbabel.org
data_I
_chemical_name_common ''
_cell_length_a 13.105
_cell_length_b 13.105
_cell_length_c 23.0122
_cell_angle_alpha 90
_cell_angle_beta 90
_cell_angle_gamma 120
loop_
    _atom_site_label
    _atom_site_type_symbol
    _atom_site_fract_x
    _atom_site_fract_y
    _atom_site_fract_z
    _atom_site_occupancy
    Mo0      Mo       0.16715    0.08425    0.06835    1.000
    S1       S        0.08377    0.16748    0.99936    1.000
    S2       S        0.08391    0.16773    0.13729    1.000
    Mo3      Mo       0.41724    0.08434    0.06832    1.000
    S4       S        0.33376    0.16747    0.99935    1.000
    S5       S        0.33389    0.16775    0.13728    1.000
    Mo6      Mo       0.66719    0.08432    0.06827    1.000
    S7       S        0.58387    0.16772    0.99937    1.000
    S8       S        0.58388    0.16760    0.13728    1.000
    Mo9      Mo       0.91716    0.08433    0.06833    1.000
    S10      S        0.83392    0.16772    0.99938    1.000
    S11      S        0.83377    0.16758    0.13729    1.000
    Mo12     Mo       0.16718    0.33427    0.06815    1.000
    S13      S        0.08367    0.41752    0.99931    1.000
    S14      S        0.08410    0.41778    0.13725    1.000
    Mo15     Mo       0.41715    0.33428    0.06813    1.000
    S16      S        0.33372    0.41742    0.99903    1.000
    S17      S        0.33387    0.41764    0.13679    1.000
    Mo18     Mo       0.66717    0.33430    0.06835    1.000
    S19      S        0.58390    0.41751    0.99928    1.000
    S20      S        0.58375    0.41779    0.13722    1.000
    Mo21     Mo       0.91719    0.33429    0.06837    1.000
    S22      S        0.83382    0.41755    0.99941    1.000
    S23      S        0.83390    0.41777    0.13727    1.000
    Mo24     Mo       0.16719    0.58433    0.06813    1.000
    S25      S        0.08381    0.66766    0.99923    1.000
    S26      S        0.08393    0.66766    0.13714    1.000
    Mo27     Mo       0.41719    0.58431    0.06790    1.000
    S28      S        0.33375    0.66768    0.99907    1.000
    S29      S        0.33390    0.66761    0.13697    1.000
    Mo30     Mo       0.66720    0.58433    0.06810    1.000
    S31      S        0.58397    0.66768    0.99905    1.000
    S32      S        0.58379    0.66762    0.13695    1.000
    Mo33     Mo       0.91721    0.58435    0.06823    1.000
    S34      S        0.83393    0.66766    0.99921    1.000
    S35      S        0.83377    0.66764    0.13713    1.000
    Mo36     Mo       0.16719    0.83431    0.06821    1.000
    S37      S        0.08390    0.91774    0.99930    1.000
    S38      S        0.08377    0.91749    0.13721    1.000
    Mo39     Mo       0.41722    0.83431    0.06810    1.000
    S40      S        0.33389    0.91780    0.99928    1.000
    S41      S        0.33388    0.91751    0.13715    1.000
    Mo42     Mo       0.66715    0.83431    0.06808    1.000
    S43      S        0.58392    0.91779    0.99918    1.000
    S44      S        0.58377    0.91747    0.13711    1.000
    Mo45     Mo       0.91719    0.83430    0.06821    1.000
    S46      S        0.83399    0.91781    0.99928    1.000
    S47      S        0.83368    0.91748    0.13715    1.000
    N48      N        0.32617    0.41348    0.29589    1.000
    C49      C        0.39639    0.54267    0.28714    1.000
    H50      H        0.24592    0.37941    0.27634    1.000
    H51      H        0.36728    0.37265    0.27780    1.000
    H52      H        0.35148    0.58403    0.30809    1.000
    H53      H        0.41167    0.57096    0.24143    1.000
    H54      H        0.48209    0.57612    0.30797    1.000
