# CIF file generated by openbabel 3.1.0, see https://openbabel.org
data_I
_chemical_name_common ''
_cell_length_a 13.105
_cell_length_b 13.105
_cell_length_c 23.0122
_cell_angle_alpha 90
_cell_angle_beta 90
_cell_angle_gamma 120
loop_
    _atom_site_label
    _atom_site_type_symbol
    _atom_site_fract_x
    _atom_site_fract_y
    _atom_site_fract_z
    _atom_site_occupancy
    Mo0      Mo       0.16623    0.08296    0.06681    1.000
    S1       S        0.08291    0.16628    0.99784    1.000
    S2       S        0.08292    0.16635    0.13573    1.000
    Mo3      Mo       0.41619    0.08298    0.06680    1.000
    S4       S        0.33286    0.16626    0.99784    1.000
    S5       S        0.33293    0.16640    0.13574    1.000
    Mo6      Mo       0.66622    0.08304    0.06676    1.000
    S7       S        0.58286    0.16638    0.99785    1.000
    S8       S        0.58287    0.16633    0.13574    1.000
    Mo9      Mo       0.91623    0.08302    0.06678    1.000
    S10      S        0.83293    0.16641    0.99784    1.000
    S11      S        0.83286    0.16629    0.13576    1.000
    Mo12     Mo       0.16622    0.33298    0.06674    1.000
    S13      S        0.08278    0.41624    0.99782    1.000
    S14      S        0.08295    0.41634    0.13573    1.000
    Mo15     Mo       0.41622    0.33301    0.06673    1.000
    S16      S        0.33271    0.41605    0.99766    1.000
    S17      S        0.33306    0.41663    0.13561    1.000
    Mo18     Mo       0.66621    0.33303    0.06680    1.000
    S19      S        0.58283    0.41615    0.99772    1.000
    S20      S        0.58292    0.41662    0.13568    1.000
    Mo21     Mo       0.91621    0.33298    0.06682    1.000
    S22      S        0.83288    0.41629    0.99787    1.000
    S23      S        0.83285    0.41632    0.13578    1.000
    Mo24     Mo       0.16618    0.58296    0.06674    1.000
    S25      S        0.08280    0.66630    0.99784    1.000
    S26      S        0.08287    0.66627    0.13574    1.000
    Mo27     Mo       0.41610    0.58299    0.06636    1.000
    S28      S        0.33266    0.66642    0.99764    1.000
    S29      S        0.33303    0.66626    0.13560    1.000
    Mo30     Mo       0.66621    0.58301    0.06646    1.000
    S31      S        0.58291    0.66641    0.99734    1.000
    S32      S        0.58271    0.66636    0.13492    1.000
    Mo33     Mo       0.91616    0.58296    0.06680    1.000
    S34      S        0.83309    0.66641    0.99774    1.000
    S35      S        0.83258    0.66625    0.13570    1.000
    Mo36     Mo       0.16619    0.83296    0.06680    1.000
    S37      S        0.08290    0.91631    0.99785    1.000
    S38      S        0.08283    0.91627    0.13576    1.000
    Mo39     Mo       0.41620    0.83300    0.06670    1.000
    S40      S        0.33281    0.91635    0.99782    1.000
    S41      S        0.33291    0.91626    0.13573    1.000
    Mo42     Mo       0.66623    0.83313    0.06642    1.000
    S43      S        0.58282    0.91658    0.99767    1.000
    S44      S        0.58292    0.91620    0.13563    1.000
    Mo45     Mo       0.91619    0.83299    0.06677    1.000
    S46      S        0.83316    0.91653    0.99772    1.000
    S47      S        0.83262    0.91619    0.13567    1.000
    N48      N        0.60101    0.68479    0.34795    1.000
    C49      C        0.59448    0.68050    0.28364    1.000
    H50      H        0.56108    0.60197    0.36489    1.000
    H51      H        0.68635    0.72585    0.36149    1.000
    H52      H        0.50202    0.63604    0.27045    1.000
    H53      H        0.63622    0.63507    0.26271    1.000
    H54      H        0.63640    0.77040    0.26673    1.000
