# CIF file generated by openbabel 3.1.0, see https://openbabel.org
data_I
_chemical_name_common ''
_cell_length_a 13.105
_cell_length_b 13.105
_cell_length_c 23.0122
_cell_angle_alpha 90
_cell_angle_beta 90
_cell_angle_gamma 120
loop_
    _atom_site_label
    _atom_site_type_symbol
    _atom_site_fract_x
    _atom_site_fract_y
    _atom_site_fract_z
    _atom_site_occupancy
    Mo0      Mo       0.16654    0.08330    0.06681    1.000
    S1       S        0.08316    0.16653    0.99780    1.000
    S2       S        0.08322    0.16669    0.13570    1.000
    Mo3      Mo       0.41651    0.08333    0.06680    1.000
    S4       S        0.33316    0.16658    0.99783    1.000
    S5       S        0.33325    0.16678    0.13574    1.000
    Mo6      Mo       0.66655    0.08337    0.06677    1.000
    S7       S        0.58317    0.16669    0.99783    1.000
    S8       S        0.58318    0.16668    0.13573    1.000
    Mo9      Mo       0.91651    0.08333    0.06677    1.000
    S10      S        0.83325    0.16678    0.99785    1.000
    S11      S        0.83319    0.16664    0.13577    1.000
    Mo12     Mo       0.16646    0.33329    0.06669    1.000
    S13      S        0.08297    0.41655    0.99779    1.000
    S14      S        0.08326    0.41669    0.13571    1.000
    Mo15     Mo       0.41649    0.33334    0.06670    1.000
    S16      S        0.33296    0.41636    0.99761    1.000
    S17      S        0.33324    0.41689    0.13558    1.000
    Mo18     Mo       0.66654    0.33337    0.06678    1.000
    S19      S        0.58316    0.41651    0.99772    1.000
    S20      S        0.58320    0.41688    0.13568    1.000
    Mo21     Mo       0.91651    0.33333    0.06684    1.000
    S22      S        0.83322    0.41663    0.99786    1.000
    S23      S        0.83317    0.41670    0.13578    1.000
    Mo24     Mo       0.16644    0.58329    0.06669    1.000
    S25      S        0.08311    0.66674    0.99780    1.000
    S26      S        0.08319    0.66665    0.13571    1.000
    Mo27     Mo       0.41635    0.58327    0.06634    1.000
    S28      S        0.33293    0.66675    0.99760    1.000
    S29      S        0.33322    0.66652    0.13557    1.000
    Mo30     Mo       0.66646    0.58334    0.06650    1.000
    S31      S        0.58318    0.66670    0.99737    1.000
    S32      S        0.58287    0.66656    0.13493    1.000
    Mo33     Mo       0.91647    0.58333    0.06678    1.000
    S34      S        0.83335    0.66675    0.99775    1.000
    S35      S        0.83291    0.66656    0.13572    1.000
    Mo36     Mo       0.16652    0.83335    0.06681    1.000
    S37      S        0.08319    0.91666    0.99787    1.000
    S38      S        0.08315    0.91664    0.13578    1.000
    Mo39     Mo       0.41649    0.83332    0.06669    1.000
    S40      S        0.33314    0.91673    0.99782    1.000
    S41      S        0.33324    0.91661    0.13573    1.000
    Mo42     Mo       0.66648    0.83334    0.06649    1.000
    S43      S        0.58317    0.91686    0.99770    1.000
    S44      S        0.58320    0.91653    0.13566    1.000
    Mo45     Mo       0.91649    0.83332    0.06679    1.000
    S46      S        0.83337    0.91678    0.99774    1.000
    S47      S        0.83293    0.91654    0.13571    1.000
    N48      N        0.59275    0.67033    0.34813    1.000
    C49      C        0.58709    0.66698    0.28380    1.000
    H50      H        0.63859    0.63181    0.36298    1.000
    H51      H        0.63555    0.75498    0.36271    1.000
    H52      H        0.53845    0.57523    0.26948    1.000
    H53      H        0.67312    0.71000    0.26173    1.000
    H54      H        0.53821    0.70963    0.26920    1.000
