# CIF file generated by openbabel 3.1.0, see https://openbabel.org
data_I
_chemical_name_common ''
_cell_length_a 13.105
_cell_length_b 13.105
_cell_length_c 23.0122
_cell_angle_alpha 90
_cell_angle_beta 90
_cell_angle_gamma 120
loop_
    _atom_site_label
    _atom_site_type_symbol
    _atom_site_fract_x
    _atom_site_fract_y
    _atom_site_fract_z
    _atom_site_occupancy
    N0       N        0.37614    0.42678    0.51732    1.000
    C1       C        0.44141    0.55736    0.52084    1.000
    H2       H        0.42157    0.39317    0.53793    1.000
    H3       H        0.29705    0.39315    0.53790    1.000
    H4       H        0.52566    0.59095    0.49854    1.000
    H5       H        0.45880    0.59294    0.56521    1.000
    H6       H        0.39127    0.59102    0.49811    1.000
