# CIF file generated by openbabel 3.1.0, see https://openbabel.org
data_I
_chemical_name_common ''
_cell_length_a 13.105
_cell_length_b 13.105
_cell_length_c 23.0122
_cell_angle_alpha 90
_cell_angle_beta 90
_cell_angle_gamma 120
loop_
    _atom_site_label
    _atom_site_type_symbol
    _atom_site_fract_x
    _atom_site_fract_y
    _atom_site_fract_z
    _atom_site_occupancy
    Mo0      Mo       0.16579    0.08353    0.06585    1.000
    S1       S        0.08250    0.16684    0.99687    1.000
    S2       S        0.08247    0.16684    0.13481    1.000
    Mo3      Mo       0.41574    0.08354    0.06579    1.000
    S4       S        0.33235    0.16680    0.99684    1.000
    S5       S        0.33248    0.16701    0.13481    1.000
    Mo6      Mo       0.66583    0.08350    0.06575    1.000
    S7       S        0.58237    0.16668    0.99673    1.000
    S8       S        0.58249    0.16680    0.13457    1.000
    Mo9      Mo       0.91583    0.08355    0.06582    1.000
    S10      S        0.83253    0.16686    0.99684    1.000
    S11      S        0.83247    0.16684    0.13479    1.000
    Mo12     Mo       0.16580    0.33349    0.06583    1.000
    S13      S        0.08251    0.41688    0.99693    1.000
    S14      S        0.08240    0.41677    0.13482    1.000
    Mo15     Mo       0.41578    0.33360    0.06566    1.000
    S16      S        0.33242    0.41702    0.99685    1.000
    S17      S        0.33243    0.41683    0.13478    1.000
    Mo18     Mo       0.66586    0.33352    0.06554    1.000
    S19      S        0.58245    0.41688    0.99652    1.000
    S20      S        0.58268    0.41704    0.13412    1.000
    Mo21     Mo       0.91578    0.33350    0.06579    1.000
    S22      S        0.83261    0.41690    0.99671    1.000
    S23      S        0.83251    0.41698    0.13461    1.000
    Mo24     Mo       0.16576    0.58353    0.06590    1.000
    S25      S        0.08253    0.66687    0.99689    1.000
    S26      S        0.08229    0.66675    0.13483    1.000
    Mo27     Mo       0.41572    0.58359    0.06588    1.000
    S28      S        0.33236    0.66687    0.99693    1.000
    S29      S        0.33240    0.66692    0.13486    1.000
    Mo30     Mo       0.66583    0.58364    0.06558    1.000
    S31      S        0.58231    0.66700    0.99685    1.000
    S32      S        0.58253    0.66683    0.13479    1.000
    Mo33     Mo       0.91579    0.58356    0.06574    1.000
    S34      S        0.83263    0.66711    0.99680    1.000
    S35      S        0.83233    0.66679    0.13476    1.000
    Mo36     Mo       0.16575    0.83348    0.06589    1.000
    S37      S        0.08246    0.91683    0.99694    1.000
    S38      S        0.08248    0.91686    0.13482    1.000
    Mo39     Mo       0.41572    0.83352    0.06586    1.000
    S40      S        0.33236    0.91682    0.99690    1.000
    S41      S        0.33246    0.91693    0.13482    1.000
    Mo42     Mo       0.66582    0.83357    0.06585    1.000
    S43      S        0.58239    0.91676    0.99689    1.000
    S44      S        0.58245    0.91691    0.13478    1.000
    Mo45     Mo       0.91579    0.83359    0.06587    1.000
    S46      S        0.83248    0.91689    0.99689    1.000
    S47      S        0.83250    0.91696    0.13481    1.000
    C48      C        0.47455    0.38901    0.28776    1.000
    H49      H        0.50754    0.25395    0.32189    1.000
    H50      H        0.51647    0.26611    0.24597    1.000
    C51      C        0.53912    0.31796    0.28619    1.000
    H52      H        0.69753    0.45012    0.32930    1.000
    H53      H        0.70620    0.45624    0.25318    1.000
    C54      C        0.67422    0.39517    0.29017    1.000
    H55      H        0.83277    0.37859    0.28952    1.000
    H56      H        0.71041    0.26233    0.25389    1.000
    H57      H        0.71479    0.26871    0.33057    1.000
    C58      C        0.73698    0.32225    0.29114    1.000
    H59      H        0.37980    0.33222    0.28084    1.000
    H60      H        0.50773    0.45696    0.25399    1.000
    H61      H        0.48709    0.43314    0.32966    1.000
