# CIF file generated by openbabel 3.1.0, see https://openbabel.org
data_I
_chemical_name_common ''
_cell_length_a 13.105
_cell_length_b 13.105
_cell_length_c 23.0122
_cell_angle_alpha 90
_cell_angle_beta 90
_cell_angle_gamma 120
loop_
    _atom_site_label
    _atom_site_type_symbol
    _atom_site_fract_x
    _atom_site_fract_y
    _atom_site_fract_z
    _atom_site_occupancy
    Mo0      Mo       0.16410    0.07980    0.06521    1.000
    S1       S        0.08069    0.16304    0.99628    1.000
    S2       S        0.08091    0.16327    0.13421    1.000
    Mo3      Mo       0.41405    0.07980    0.06519    1.000
    S4       S        0.33063    0.16290    0.99613    1.000
    S5       S        0.33085    0.16333    0.13408    1.000
    Mo6      Mo       0.66404    0.07978    0.06525    1.000
    S7       S        0.58070    0.16301    0.99622    1.000
    S8       S        0.58071    0.16319    0.13411    1.000
    Mo9      Mo       0.91409    0.07982    0.06531    1.000
    S10      S        0.83076    0.16315    0.99636    1.000
    S11      S        0.83067    0.16313    0.13424    1.000
    Mo12     Mo       0.16406    0.32979    0.06513    1.000
    S13      S        0.08067    0.41313    0.99628    1.000
    S14      S        0.08083    0.41305    0.13425    1.000
    Mo15     Mo       0.41403    0.32978    0.06488    1.000
    S16      S        0.33066    0.41328    0.99606    1.000
    S17      S        0.33072    0.41292    0.13394    1.000
    Mo18     Mo       0.66415    0.32982    0.06503    1.000
    S19      S        0.58090    0.41326    0.99592    1.000
    S20      S        0.58075    0.41332    0.13355    1.000
    Mo21     Mo       0.91408    0.32984    0.06529    1.000
    S22      S        0.83089    0.41317    0.99620    1.000
    S23      S        0.83063    0.41317    0.13421    1.000
    Mo24     Mo       0.16406    0.57972    0.06530    1.000
    S25      S        0.08083    0.66320    0.99636    1.000
    S26      S        0.08060    0.66299    0.13421    1.000
    Mo27     Mo       0.41411    0.57978    0.06518    1.000
    S28      S        0.33070    0.66323    0.99635    1.000
    S29      S        0.33078    0.66296    0.13425    1.000
    Mo30     Mo       0.66415    0.57996    0.06498    1.000
    S31      S        0.58075    0.66334    0.99620    1.000
    S32      S        0.58073    0.66293    0.13423    1.000
    Mo33     Mo       0.91401    0.57975    0.06521    1.000
    S34      S        0.83099    0.66334    0.99621    1.000
    S35      S        0.83051    0.66295    0.13419    1.000
    Mo36     Mo       0.16407    0.82981    0.06532    1.000
    S37      S        0.08068    0.91307    0.99633    1.000
    S38      S        0.08077    0.91321    0.13425    1.000
    Mo39     Mo       0.41406    0.82980    0.06534    1.000
    S40      S        0.33071    0.91301    0.99634    1.000
    S41      S        0.33076    0.91327    0.13426    1.000
    Mo42     Mo       0.66403    0.82979    0.06533    1.000
    S43      S        0.58072    0.91310    0.99636    1.000
    S44      S        0.58069    0.91318    0.13429    1.000
    Mo45     Mo       0.91406    0.82981    0.06530    1.000
    S46      S        0.83068    0.91318    0.99638    1.000
    S47      S        0.83076    0.91313    0.13428    1.000
    C48      C        0.39631    0.43440    0.29482    1.000
    H49      H        0.42321    0.28985    0.31960    1.000
    H50      H        0.43553    0.31776    0.24470    1.000
    C51      C        0.45762    0.36103    0.28736    1.000
    H52      H        0.61438    0.47997    0.33559    1.000
    H53      H        0.62706    0.50510    0.26036    1.000
    C54      C        0.59265    0.43519    0.29336    1.000
    H55      H        0.75018    0.41763    0.29094    1.000
    H56      H        0.63474    0.31642    0.24576    1.000
    H57      H        0.62547    0.29500    0.32172    1.000
    C58      C        0.65448    0.36203    0.28764    1.000
    H59      H        0.30112    0.38091    0.28827    1.000
    H60      H        0.43037    0.50709    0.26353    1.000
    H61      H        0.41158    0.47264    0.33840    1.000
