# CIF file generated by openbabel 3.1.0, see https://openbabel.org
data_I
_chemical_name_common ''
_cell_length_a 13.105
_cell_length_b 13.105
_cell_length_c 23.0122
_cell_angle_alpha 90
_cell_angle_beta 90
_cell_angle_gamma 120
loop_
    _atom_site_label
    _atom_site_type_symbol
    _atom_site_fract_x
    _atom_site_fract_y
    _atom_site_fract_z
    _atom_site_occupancy
    Mo0      Mo       0.16615    0.08353    0.06469    1.000
    S1       S        0.08289    0.16688    0.99570    1.000
    S2       S        0.08284    0.16686    0.13366    1.000
    Mo3      Mo       0.41611    0.08364    0.06470    1.000
    S4       S        0.33277    0.16693    0.99570    1.000
    S5       S        0.33283    0.16708    0.13366    1.000
    Mo6      Mo       0.66623    0.08365    0.06462    1.000
    S7       S        0.58272    0.16689    0.99571    1.000
    S8       S        0.58281    0.16693    0.13364    1.000
    Mo9      Mo       0.91623    0.08363    0.06462    1.000
    S10      S        0.83291    0.16696    0.99566    1.000
    S11      S        0.83286    0.16692    0.13362    1.000
    Mo12     Mo       0.16615    0.33355    0.06466    1.000
    S13      S        0.08288    0.41694    0.99570    1.000
    S14      S        0.08282    0.41686    0.13363    1.000
    Mo15     Mo       0.41614    0.33367    0.06460    1.000
    S16      S        0.33269    0.41686    0.99561    1.000
    S17      S        0.33291    0.41711    0.13360    1.000
    Mo18     Mo       0.66612    0.33354    0.06460    1.000
    S19      S        0.58276    0.41680    0.99556    1.000
    S20      S        0.58295    0.41705    0.13343    1.000
    Mo21     Mo       0.91617    0.33357    0.06464    1.000
    S22      S        0.83271    0.41671    0.99562    1.000
    S23      S        0.83277    0.41694    0.13360    1.000
    Mo24     Mo       0.16620    0.58358    0.06468    1.000
    S25      S        0.08292    0.66682    0.99564    1.000
    S26      S        0.08264    0.66673    0.13362    1.000
    Mo27     Mo       0.41608    0.58362    0.06447    1.000
    S28      S        0.33281    0.66710    0.99565    1.000
    S29      S        0.33304    0.66708    0.13359    1.000
    Mo30     Mo       0.66617    0.58358    0.06438    1.000
    S31      S        0.58276    0.66690    0.99543    1.000
    S32      S        0.58276    0.66689    0.13323    1.000
    Mo33     Mo       0.91617    0.58348    0.06448    1.000
    S34      S        0.83297    0.66699    0.99547    1.000
    S35      S        0.83289    0.66692    0.13322    1.000
    Mo36     Mo       0.16617    0.83346    0.06466    1.000
    S37      S        0.08298    0.91686    0.99567    1.000
    S38      S        0.08277    0.91673    0.13365    1.000
    Mo39     Mo       0.41631    0.83374    0.06462    1.000
    S40      S        0.33288    0.91704    0.99571    1.000
    S41      S        0.33288    0.91693    0.13363    1.000
    Mo42     Mo       0.66627    0.83364    0.06442    1.000
    S43      S        0.58292    0.91708    0.99556    1.000
    S44      S        0.58311    0.91692    0.13354    1.000
    Mo45     Mo       0.91625    0.83367    0.06452    1.000
    S46      S        0.83307    0.91712    0.99555    1.000
    S47      S        0.83274    0.91688    0.13350    1.000
    C48      C        0.84564    0.82294    0.29141    1.000
    H49      H        0.67226    0.72201    0.33016    1.000
    H50      H        0.67121    0.71917    0.25393    1.000
    C51      C        0.71969    0.71623    0.29217    1.000
    H52      H        0.76711    0.59469    0.33058    1.000
    H53      H        0.76220    0.59096    0.25442    1.000
    C54      C        0.71666    0.59714    0.29311    1.000
    H55      H        0.59206    0.40732    0.29433    1.000
    H56      H        0.53897    0.49034    0.25802    1.000
    H57      H        0.54510    0.49113    0.33477    1.000
    C58      C        0.59097    0.49022    0.29524    1.000
    H59      H        0.84508    0.90596    0.28872    1.000
    H60      H        0.89539    0.81888    0.25411    1.000
    H61      H        0.89370    0.82547    0.33075    1.000
