# CIF file generated by openbabel 3.1.0, see https://openbabel.org
data_I
_chemical_name_common ''
_cell_length_a 13.105
_cell_length_b 13.105
_cell_length_c 23.0122
_cell_angle_alpha 90
_cell_angle_beta 90
_cell_angle_gamma 120
loop_
    _atom_site_label
    _atom_site_type_symbol
    _atom_site_fract_x
    _atom_site_fract_y
    _atom_site_fract_z
    _atom_site_occupancy
    Mo0      Mo       0.16347    0.08453    0.06558    1.000
    S1       S        0.07995    0.16760    0.99654    1.000
    S2       S        0.08029    0.16803    0.13452    1.000
    Mo3      Mo       0.41349    0.08446    0.06561    1.000
    S4       S        0.33006    0.16757    0.99652    1.000
    S5       S        0.33026    0.16802    0.13452    1.000
    Mo6      Mo       0.66347    0.08446    0.06565    1.000
    S7       S        0.58019    0.16775    0.99666    1.000
    S8       S        0.58014    0.16782    0.13464    1.000
    Mo9      Mo       0.91346    0.08450    0.06563    1.000
    S10      S        0.83012    0.16782    0.99669    1.000
    S11      S        0.83013    0.16779    0.13465    1.000
    Mo12     Mo       0.16338    0.33441    0.06532    1.000
    S13      S        0.07997    0.41788    0.99656    1.000
    S14      S        0.08038    0.41780    0.13453    1.000
    Mo15     Mo       0.41347    0.33439    0.06527    1.000
    S16      S        0.33005    0.41763    0.99627    1.000
    S17      S        0.32998    0.41756    0.13400    1.000
    Mo18     Mo       0.66356    0.33442    0.06558    1.000
    S19      S        0.58038    0.41775    0.99647    1.000
    S20      S        0.57994    0.41770    0.13421    1.000
    Mo21     Mo       0.91349    0.33445    0.06568    1.000
    S22      S        0.83029    0.41786    0.99672    1.000
    S23      S        0.83010    0.41772    0.13472    1.000
    Mo24     Mo       0.16350    0.58448    0.06555    1.000
    S25      S        0.08001    0.66785    0.99672    1.000
    S26      S        0.08022    0.66776    0.13466    1.000
    Mo27     Mo       0.41344    0.58441    0.06524    1.000
    S28      S        0.33004    0.66780    0.99642    1.000
    S29      S        0.33025    0.66769    0.13439    1.000
    Mo30     Mo       0.66348    0.58447    0.06544    1.000
    S31      S        0.58031    0.66790    0.99636    1.000
    S32      S        0.58005    0.66797    0.13414    1.000
    Mo33     Mo       0.91345    0.58444    0.06574    1.000
    S34      S        0.83029    0.66787    0.99669    1.000
    S35      S        0.82989    0.66768    0.13469    1.000
    Mo36     Mo       0.16342    0.83448    0.06571    1.000
    S37      S        0.08010    0.91775    0.99672    1.000
    S38      S        0.08012    0.91797    0.13464    1.000
    Mo39     Mo       0.41339    0.83441    0.06550    1.000
    S40      S        0.32995    0.91780    0.99666    1.000
    S41      S        0.33019    0.91778    0.13459    1.000
    Mo42     Mo       0.66349    0.83459    0.06538    1.000
    S43      S        0.58003    0.91795    0.99655    1.000
    S44      S        0.58002    0.91761    0.13451    1.000
    Mo45     Mo       0.91342    0.83448    0.06568    1.000
    S46      S        0.83033    0.91792    0.99660    1.000
    S47      S        0.82994    0.91776    0.13457    1.000
    C48      C        0.38174    0.52257    0.28432    1.000
    H49      H        0.41794    0.39876    0.32910    1.000
    H50      H        0.41777    0.38733    0.25314    1.000
    C51      C        0.44541    0.45097    0.28899    1.000
    H52      H        0.60874    0.59540    0.32224    1.000
    H53      H        0.60852    0.57567    0.24687    1.000
    C54      C        0.58084    0.52793    0.28827    1.000
    H55      H        0.73944    0.51258    0.29453    1.000
    H56      H        0.61709    0.38836    0.26329    1.000
    H57      H        0.62185    0.41217    0.33909    1.000
    C58      C        0.64368    0.45631    0.29682    1.000
    H59      H        0.28614    0.46497    0.28195    1.000
    H60      H        0.40946    0.57831    0.24551    1.000
    H61      H        0.40118    0.58030    0.32201    1.000
