# CIF file generated by openbabel 3.1.0, see https://openbabel.org
data_I
_chemical_name_common ''
_cell_length_a 13.105
_cell_length_b 13.105
_cell_length_c 23.0122
_cell_angle_alpha 90
_cell_angle_beta 90
_cell_angle_gamma 120
loop_
    _atom_site_label
    _atom_site_type_symbol
    _atom_site_fract_x
    _atom_site_fract_y
    _atom_site_fract_z
    _atom_site_occupancy
    C0       C        0.36443    0.52228    0.49642    1.000
    H1       H        0.42161    0.40746    0.53403    1.000
    H2       H        0.42164    0.40836    0.45775    1.000
    C3       C        0.44248    0.46519    0.49607    1.000
    H4       H        0.59615    0.61376    0.53403    1.000
    H5       H        0.59612    0.61286    0.45775    1.000
    C6       C        0.57530    0.55603    0.49607    1.000
    H7       H        0.74679    0.56537    0.49554    1.000
    H8       H        0.63488    0.44160    0.45865    1.000
    H9       H        0.63723    0.44509    0.53537    1.000
    C10      C        0.65326    0.49891    0.49643    1.000
    H11      H        0.27091    0.45577    0.49539    1.000
    H12      H        0.38298    0.57977    0.45871    1.000
    H13      H        0.38019    0.57584    0.53544    1.000
