# CIF file generated by openbabel 3.1.0, see https://openbabel.org
data_I
_chemical_name_common ''
_cell_length_a 13.105
_cell_length_b 13.105
_cell_length_c 23.0122
_cell_angle_alpha 90
_cell_angle_beta 90
_cell_angle_gamma 120
loop_
    _atom_site_label
    _atom_site_type_symbol
    _atom_site_fract_x
    _atom_site_fract_y
    _atom_site_fract_z
    _atom_site_occupancy
    Mo0      Mo       0.16650    0.08368    0.06497    1.000
    S1       S        0.08307    0.16684    0.99596    1.000
    S2       S        0.08322    0.16710    0.13390    1.000
    Mo3      Mo       0.41646    0.08360    0.06500    1.000
    S4       S        0.33309    0.16673    0.99594    1.000
    S5       S        0.33322    0.16714    0.13392    1.000
    Mo6      Mo       0.66641    0.08358    0.06499    1.000
    S7       S        0.58304    0.16682    0.99600    1.000
    S8       S        0.58314    0.16703    0.13395    1.000
    Mo9      Mo       0.91651    0.08358    0.06495    1.000
    S10      S        0.83309    0.16691    0.99605    1.000
    S11      S        0.83318    0.16693    0.13390    1.000
    Mo12     Mo       0.16645    0.33359    0.06479    1.000
    S13      S        0.08310    0.41694    0.99591    1.000
    S14      S        0.08330    0.41700    0.13389    1.000
    Mo15     Mo       0.41657    0.33356    0.06474    1.000
    S16      S        0.33313    0.41683    0.99574    1.000
    S17      S        0.33318    0.41683    0.13354    1.000
    Mo18     Mo       0.66651    0.33359    0.06485    1.000
    S19      S        0.58325    0.41690    0.99577    1.000
    S20      S        0.58330    0.41705    0.13367    1.000
    Mo21     Mo       0.91654    0.33364    0.06496    1.000
    S22      S        0.83323    0.41689    0.99597    1.000
    S23      S        0.83306    0.41689    0.13391    1.000
    Mo24     Mo       0.16644    0.58357    0.06488    1.000
    S25      S        0.08312    0.66703    0.99603    1.000
    S26      S        0.08310    0.66681    0.13393    1.000
    Mo27     Mo       0.41646    0.58360    0.06470    1.000
    S28      S        0.33306    0.66703    0.99588    1.000
    S29      S        0.33302    0.66672    0.13380    1.000
    Mo30     Mo       0.66649    0.58362    0.06469    1.000
    S31      S        0.58316    0.66709    0.99572    1.000
    S32      S        0.58326    0.66709    0.13349    1.000
    Mo33     Mo       0.91641    0.58355    0.06495    1.000
    S34      S        0.83331    0.66698    0.99591    1.000
    S35      S        0.83285    0.66674    0.13389    1.000
    Mo36     Mo       0.16652    0.83360    0.06504    1.000
    S37      S        0.08320    0.91693    0.99608    1.000
    S38      S        0.08312    0.91697    0.13394    1.000
    Mo39     Mo       0.41651    0.83356    0.06497    1.000
    S40      S        0.33315    0.91691    0.99608    1.000
    S41      S        0.33324    0.91692    0.13399    1.000
    Mo42     Mo       0.66656    0.83374    0.06479    1.000
    S43      S        0.58313    0.91704    0.99597    1.000
    S44      S        0.58319    0.91686    0.13395    1.000
    Mo45     Mo       0.91644    0.83353    0.06496    1.000
    S46      S        0.83332    0.91700    0.99594    1.000
    S47      S        0.83309    0.91686    0.13389    1.000
    C48      C        0.43196    0.65623    0.29207    1.000
    H49      H        0.35992    0.48523    0.33352    1.000
    H50      H        0.34933    0.47845    0.25744    1.000
    C51      C        0.40775    0.52845    0.29357    1.000
    H52      H        0.57976    0.57139    0.32599    1.000
    H53      H        0.56855    0.56358    0.24999    1.000
    C54      C        0.52114    0.52061    0.29010    1.000
    H55      H        0.58030    0.39130    0.28760    1.000
    H56      H        0.43937    0.34026    0.25678    1.000
    H57      H        0.45696    0.35046    0.33308    1.000
    C58      C        0.49824    0.39337    0.29202    1.000
    H59      H        0.35005    0.65923    0.29259    1.000
    H60      H        0.48069    0.70180    0.25281    1.000
    H61      H        0.48469    0.70625    0.32953    1.000
