# CIF file generated by openbabel 3.1.0, see https://openbabel.org
data_I
_chemical_name_common ''
_cell_length_a 13.105
_cell_length_b 13.105
_cell_length_c 23.0122
_cell_angle_alpha 90
_cell_angle_beta 90
_cell_angle_gamma 120
loop_
    _atom_site_label
    _atom_site_type_symbol
    _atom_site_fract_x
    _atom_site_fract_y
    _atom_site_fract_z
    _atom_site_occupancy
    Mo0      Mo       0.16890    0.08794    0.06553    1.000
    S1       S        0.08579    0.17140    0.99648    1.000
    S2       S        0.08535    0.17113    0.13442    1.000
    Mo3      Mo       0.41885    0.08786    0.06564    1.000
    S4       S        0.33563    0.17126    0.99666    1.000
    S5       S        0.33549    0.17118    0.13460    1.000
    Mo6      Mo       0.66885    0.08793    0.06555    1.000
    S7       S        0.58546    0.17126    0.99666    1.000
    S8       S        0.58552    0.17119    0.13461    1.000
    Mo9      Mo       0.91891    0.08801    0.06526    1.000
    S10      S        0.83541    0.17137    0.99648    1.000
    S11      S        0.83564    0.17117    0.13442    1.000
    Mo12     Mo       0.16889    0.33791    0.06555    1.000
    S13      S        0.08554    0.42123    0.99659    1.000
    S14      S        0.08548    0.42115    0.13452    1.000
    Mo15     Mo       0.41891    0.33791    0.06564    1.000
    S16      S        0.33557    0.42115    0.99662    1.000
    S17      S        0.33559    0.42132    0.13458    1.000
    Mo18     Mo       0.66884    0.33791    0.06564    1.000
    S19      S        0.58551    0.42120    0.99667    1.000
    S20      S        0.58556    0.42123    0.13465    1.000
    Mo21     Mo       0.91885    0.33792    0.06554    1.000
    S22      S        0.83540    0.42109    0.99658    1.000
    S23      S        0.83561    0.42141    0.13455    1.000
    Mo24     Mo       0.16885    0.58786    0.06555    1.000
    S25      S        0.08563    0.67127    0.99652    1.000
    S26      S        0.08541    0.67117    0.13448    1.000
    Mo27     Mo       0.41887    0.58790    0.06550    1.000
    S28      S        0.33553    0.67123    0.99658    1.000
    S29      S        0.33554    0.67114    0.13452    1.000
    Mo30     Mo       0.66888    0.58792    0.06558    1.000
    S31      S        0.58549    0.67111    0.99651    1.000
    S32      S        0.58559    0.67152    0.13437    1.000
    Mo33     Mo       0.91889    0.58791    0.06539    1.000
    S34      S        0.83537    0.67108    0.99642    1.000
    S35      S        0.83596    0.67164    0.13416    1.000
    Mo36     Mo       0.16885    0.83787    0.06553    1.000
    S37      S        0.08578    0.92137    0.99648    1.000
    S38      S        0.08536    0.92119    0.13446    1.000
    Mo39     Mo       0.41886    0.83785    0.06556    1.000
    S40      S        0.33557    0.92125    0.99663    1.000
    S41      S        0.33545    0.92108    0.13455    1.000
    Mo42     Mo       0.66893    0.83801    0.06535    1.000
    S43      S        0.58544    0.92132    0.99653    1.000
    S44      S        0.58564    0.92120    0.13450    1.000
    Mo45     Mo       0.91893    0.83804    0.06526    1.000
    S46      S        0.83550    0.92128    0.99627    1.000
    S47      S        0.83576    0.92164    0.13409    1.000
    C48      C        0.79360    0.81321    0.28850    1.000
    H49      H        0.80335    0.69474    0.35113    1.000
    H50      H        0.66823    0.69261    0.35151    1.000
    C51      C        0.73700    0.69666    0.32281    1.000
    H52      H        0.75257    0.58996    0.25549    1.000
    H53      H        0.61892    0.59060    0.25400    1.000
    C54      C        0.68313    0.58700    0.28332    1.000
    H55      H        0.58561    0.39457    0.28762    1.000
    H56      H        0.55136    0.46377    0.34421    1.000
    H57      H        0.68549    0.46244    0.34573    1.000
    C58      C        0.62294    0.47011    0.31714    1.000
    H59      H        0.83247    0.88949    0.31750    1.000
    H60      H        0.72837    0.81944    0.26128    1.000
    H61      H        0.86352    0.82011    0.25984    1.000
