# CIF file generated by openbabel 3.1.0, see https://openbabel.org
data_I
_chemical_name_common ''
_cell_length_a 13.105
_cell_length_b 13.105
_cell_length_c 23.0122
_cell_angle_alpha 90
_cell_angle_beta 90
_cell_angle_gamma 120
loop_
    _atom_site_label
    _atom_site_type_symbol
    _atom_site_fract_x
    _atom_site_fract_y
    _atom_site_fract_z
    _atom_site_occupancy
    Mo0      Mo       0.16845    0.08515    0.06466    1.000
    S1       S        0.08502    0.16835    0.99570    1.000
    S2       S        0.08511    0.16843    0.13366    1.000
    Mo3      Mo       0.41847    0.08525    0.06465    1.000
    S4       S        0.33497    0.16827    0.99559    1.000
    S5       S        0.33532    0.16883    0.13360    1.000
    Mo6      Mo       0.66842    0.08516    0.06464    1.000
    S7       S        0.58504    0.16830    0.99560    1.000
    S8       S        0.58526    0.16880    0.13356    1.000
    Mo9      Mo       0.91839    0.08510    0.06468    1.000
    S10      S        0.83507    0.16833    0.99567    1.000
    S11      S        0.83506    0.16854    0.13365    1.000
    Mo12     Mo       0.16843    0.33505    0.06463    1.000
    S13      S        0.08518    0.41842    0.99565    1.000
    S14      S        0.08507    0.41838    0.13358    1.000
    Mo15     Mo       0.41848    0.33520    0.06432    1.000
    S16      S        0.33491    0.41847    0.99554    1.000
    S17      S        0.33532    0.41842    0.13353    1.000
    Mo18     Mo       0.66858    0.33525    0.06432    1.000
    S19      S        0.58513    0.41845    0.99519    1.000
    S20      S        0.58541    0.41905    0.13275    1.000
    Mo21     Mo       0.91846    0.33512    0.06455    1.000
    S22      S        0.83532    0.41847    0.99543    1.000
    S23      S        0.83519    0.41867    0.13334    1.000
    Mo24     Mo       0.16845    0.58509    0.06461    1.000
    S25      S        0.08535    0.66857    0.99559    1.000
    S26      S        0.08498    0.66835    0.13355    1.000
    Mo27     Mo       0.41841    0.58512    0.06452    1.000
    S28      S        0.33505    0.66851    0.99563    1.000
    S29      S        0.33510    0.66836    0.13359    1.000
    Mo30     Mo       0.66856    0.58535    0.06410    1.000
    S31      S        0.58494    0.66869    0.99542    1.000
    S32      S        0.58516    0.66827    0.13340    1.000
    Mo33     Mo       0.91852    0.58519    0.06440    1.000
    S34      S        0.83548    0.66880    0.99536    1.000
    S35      S        0.83492    0.66830    0.13335    1.000
    Mo36     Mo       0.16842    0.83515    0.06465    1.000
    S37      S        0.08519    0.91855    0.99566    1.000
    S38      S        0.08494    0.91842    0.13359    1.000
    Mo39     Mo       0.41835    0.83513    0.06468    1.000
    S40      S        0.33509    0.91853    0.99572    1.000
    S41      S        0.33505    0.91855    0.13366    1.000
    Mo42     Mo       0.66832    0.83514    0.06456    1.000
    S43      S        0.58493    0.91852    0.99568    1.000
    S44      S        0.58504    0.91845    0.13362    1.000
    Mo45     Mo       0.91843    0.83519    0.06452    1.000
    S46      S        0.83501    0.91857    0.99563    1.000
    S47      S        0.83495    0.91830    0.13356    1.000
    C48      C        0.44569    0.34801    0.31522    1.000
    H49      H        0.52683    0.28787    0.25213    1.000
    H50      H        0.60305    0.44109    0.26267    1.000
    C51      C        0.55500    0.35654    0.28558    1.000
    H52      H        0.59250    0.25983    0.35029    1.000
    H53      H        0.66812    0.41304    0.36139    1.000
    C54      C        0.63985    0.34484    0.32776    1.000
    H55      H        0.80759    0.34573    0.32748    1.000
    H56      H        0.79942    0.44023    0.27517    1.000
    H57      H        0.72292    0.28627    0.26369    1.000
    C58      C        0.74887    0.35483    0.29687    1.000
    H59      H        0.38699    0.35414    0.28335    1.000
    H60      H        0.47089    0.41922    0.34672    1.000
    H61      H        0.39545    0.26439    0.33838    1.000
