# CIF file generated by openbabel 3.1.0, see https://openbabel.org
data_I
_chemical_name_common ''
_cell_length_a 13.105
_cell_length_b 13.105
_cell_length_c 23.0122
_cell_angle_alpha 90
_cell_angle_beta 90
_cell_angle_gamma 120
loop_
    _atom_site_label
    _atom_site_type_symbol
    _atom_site_fract_x
    _atom_site_fract_y
    _atom_site_fract_z
    _atom_site_occupancy
    Mo0      Mo       0.16679    0.08439    0.06459    1.000
    S1       S        0.08334    0.16760    0.99563    1.000
    S2       S        0.08353    0.16775    0.13360    1.000
    Mo3      Mo       0.41680    0.08443    0.06453    1.000
    S4       S        0.33324    0.16743    0.99548    1.000
    S5       S        0.33370    0.16809    0.13347    1.000
    Mo6      Mo       0.66673    0.08435    0.06456    1.000
    S7       S        0.58330    0.16734    0.99542    1.000
    S8       S        0.58356    0.16811    0.13344    1.000
    Mo9      Mo       0.91674    0.08432    0.06463    1.000
    S10      S        0.83341    0.16759    0.99563    1.000
    S11      S        0.83332    0.16766    0.13358    1.000
    Mo12     Mo       0.16675    0.33433    0.06452    1.000
    S13      S        0.08338    0.41766    0.99563    1.000
    S14      S        0.08338    0.41758    0.13358    1.000
    Mo15     Mo       0.41675    0.33442    0.06415    1.000
    S16      S        0.33319    0.41774    0.99538    1.000
    S17      S        0.33361    0.41770    0.13331    1.000
    Mo18     Mo       0.66682    0.33436    0.06407    1.000
    S19      S        0.58340    0.41767    0.99499    1.000
    S20      S        0.58378    0.41808    0.13242    1.000
    Mo21     Mo       0.91671    0.33429    0.06457    1.000
    S22      S        0.83378    0.41775    0.99540    1.000
    S23      S        0.83308    0.41761    0.13340    1.000
    Mo24     Mo       0.16672    0.58431    0.06461    1.000
    S25      S        0.08358    0.66774    0.99559    1.000
    S26      S        0.08329    0.66761    0.13353    1.000
    Mo27     Mo       0.41672    0.58433    0.06442    1.000
    S28      S        0.33330    0.66772    0.99560    1.000
    S29      S        0.33345    0.66756    0.13355    1.000
    Mo30     Mo       0.66686    0.58452    0.06398    1.000
    S31      S        0.58328    0.66796    0.99533    1.000
    S32      S        0.58347    0.66737    0.13334    1.000
    Mo33     Mo       0.91678    0.58434    0.06444    1.000
    S34      S        0.83386    0.66795    0.99533    1.000
    S35      S        0.83310    0.66741    0.13333    1.000
    Mo36     Mo       0.16678    0.83437    0.06461    1.000
    S37      S        0.08355    0.91776    0.99562    1.000
    S38      S        0.08339    0.91768    0.13356    1.000
    Mo39     Mo       0.41675    0.83434    0.06461    1.000
    S40      S        0.33342    0.91766    0.99564    1.000
    S41      S        0.33350    0.91781    0.13356    1.000
    Mo42     Mo       0.66673    0.83433    0.06451    1.000
    S43      S        0.58335    0.91767    0.99561    1.000
    S44      S        0.58348    0.91766    0.13355    1.000
    Mo45     Mo       0.91679    0.83434    0.06451    1.000
    S46      S        0.83348    0.91775    0.99560    1.000
    S47      S        0.83333    0.91750    0.13352    1.000
    C48      C        0.37746    0.40387    0.30135    1.000
    H49      H        0.52466    0.45747    0.36047    1.000
    H50      H        0.43276    0.30408    0.35496    1.000
    C51      C        0.47396    0.38588    0.32959    1.000
    H52      H        0.60100    0.46408    0.26012    1.000
    H53      H        0.50676    0.31152    0.25289    1.000
    C54      C        0.55847    0.38111    0.28461    1.000
    H55      H        0.71026    0.35504    0.27728    1.000
    H56      H        0.61373    0.27573    0.33493    1.000
    H57      H        0.70983    0.42935    0.34133    1.000
    C58      C        0.65361    0.35910    0.31108    1.000
    H59      H        0.32023    0.41002    0.33400    1.000
    H60      H        0.32212    0.33063    0.27226    1.000
    H61      H        0.41631    0.48487    0.27549    1.000
