# CIF file generated by openbabel 3.1.0, see https://openbabel.org
data_I
_chemical_name_common ''
_cell_length_a 13.105
_cell_length_b 13.105
_cell_length_c 23.0122
_cell_angle_alpha 90
_cell_angle_beta 90
_cell_angle_gamma 120
loop_
    _atom_site_label
    _atom_site_type_symbol
    _atom_site_fract_x
    _atom_site_fract_y
    _atom_site_fract_z
    _atom_site_occupancy
    Mo0      Mo       0.16835    0.08348    0.06704    1.000
    S1       S        0.08503    0.16674    0.99802    1.000
    S2       S        0.08505    0.16691    0.13597    1.000
    Mo3      Mo       0.41834    0.08345    0.06696    1.000
    S4       S        0.33487    0.16658    0.99797    1.000
    S5       S        0.33520    0.16701    0.13595    1.000
    Mo6      Mo       0.66833    0.08347    0.06693    1.000
    S7       S        0.58483    0.16646    0.99785    1.000
    S8       S        0.58513    0.16703    0.13582    1.000
    Mo9      Mo       0.91835    0.08349    0.06698    1.000
    S10      S        0.83505    0.16682    0.99800    1.000
    S11      S        0.83495    0.16682    0.13595    1.000
    Mo12     Mo       0.16837    0.33346    0.06692    1.000
    S13      S        0.08501    0.41688    0.99808    1.000
    S14      S        0.08505    0.41668    0.13602    1.000
    Mo15     Mo       0.41835    0.33344    0.06674    1.000
    S16      S        0.33489    0.41690    0.99789    1.000
    S17      S        0.33507    0.41663    0.13577    1.000
    Mo18     Mo       0.66841    0.33337    0.06657    1.000
    S19      S        0.58498    0.41688    0.99768    1.000
    S20      S        0.58528    0.41646    0.13534    1.000
    Mo21     Mo       0.91837    0.33346    0.06698    1.000
    S22      S        0.83535    0.41697    0.99789    1.000
    S23      S        0.83472    0.41660    0.13585    1.000
    Mo24     Mo       0.16833    0.58346    0.06709    1.000
    S25      S        0.08502    0.66680    0.99811    1.000
    S26      S        0.08490    0.66677    0.13604    1.000
    Mo27     Mo       0.41829    0.58347    0.06696    1.000
    S28      S        0.33492    0.66679    0.99806    1.000
    S29      S        0.33500    0.66678    0.13607    1.000
    Mo30     Mo       0.66835    0.58347    0.06680    1.000
    S31      S        0.58491    0.66681    0.99790    1.000
    S32      S        0.58513    0.66707    0.13569    1.000
    Mo33     Mo       0.91830    0.58345    0.06702    1.000
    S34      S        0.83514    0.66687    0.99801    1.000
    S35      S        0.83476    0.66665    0.13601    1.000
    Mo36     Mo       0.16827    0.83344    0.06707    1.000
    S37      S        0.08497    0.91678    0.99811    1.000
    S38      S        0.08490    0.91680    0.13602    1.000
    Mo39     Mo       0.41828    0.83343    0.06702    1.000
    S40      S        0.33486    0.91671    0.99807    1.000
    S41      S        0.33500    0.91683    0.13599    1.000
    Mo42     Mo       0.66834    0.83357    0.06682    1.000
    S43      S        0.58484    0.91681    0.99797    1.000
    S44      S        0.58507    0.91682    0.13591    1.000
    Mo45     Mo       0.91826    0.83344    0.06703    1.000
    S46      S        0.83511    0.91686    0.99798    1.000
    S47      S        0.83481    0.91677    0.13592    1.000
    C48      C        0.36155    0.52057    0.29987    1.000
    H49      H        0.52131    0.58321    0.35040    1.000
    H50      H        0.42331    0.43118    0.35718    1.000
    C51      C        0.46071    0.50400    0.32584    1.000
    H52      H        0.56600    0.55246    0.24774    1.000
    H53      H        0.47100    0.39998    0.25529    1.000
    C54      C        0.53102    0.48021    0.27944    1.000
    H55      H        0.68307    0.45477    0.26998    1.000
    H56      H        0.60108    0.39310    0.33427    1.000
    H57      H        0.69477    0.54726    0.32855    1.000
    C58      C        0.63334    0.46799    0.30448    1.000
    H59      H        0.31530    0.54037    0.33358    1.000
    H60      H        0.29655    0.44118    0.27701    1.000
    H61      H        0.39707    0.59334    0.26861    1.000
