# CIF file generated by openbabel 3.1.0, see https://openbabel.org
data_I
_chemical_name_common ''
_cell_length_a 13.105
_cell_length_b 13.105
_cell_length_c 23.0122
_cell_angle_alpha 90
_cell_angle_beta 90
_cell_angle_gamma 120
loop_
    _atom_site_label
    _atom_site_type_symbol
    _atom_site_fract_x
    _atom_site_fract_y
    _atom_site_fract_z
    _atom_site_occupancy
    Mo0      Mo       0.16795    0.08155    0.06454    1.000
    S1       S        0.08441    0.16475    0.99559    1.000
    S2       S        0.08467    0.16494    0.13352    1.000
    Mo3      Mo       0.41798    0.08142    0.06458    1.000
    S4       S        0.33457    0.16460    0.99553    1.000
    S5       S        0.33468    0.16486    0.13350    1.000
    Mo6      Mo       0.66793    0.08144    0.06458    1.000
    S7       S        0.58459    0.16455    0.99554    1.000
    S8       S        0.58468    0.16486    0.13348    1.000
    Mo9      Mo       0.91794    0.08160    0.06463    1.000
    S10      S        0.83463    0.16488    0.99565    1.000
    S11      S        0.83460    0.16500    0.13353    1.000
    Mo12     Mo       0.16794    0.33144    0.06444    1.000
    S13      S        0.08483    0.41514    0.99564    1.000
    S14      S        0.08472    0.41477    0.13357    1.000
    Mo15     Mo       0.41812    0.33130    0.06436    1.000
    S16      S        0.33477    0.41476    0.99547    1.000
    S17      S        0.33456    0.41430    0.13324    1.000
    Mo18     Mo       0.66819    0.33138    0.06436    1.000
    S19      S        0.58485    0.41471    0.99537    1.000
    S20      S        0.58492    0.41457    0.13321    1.000
    Mo21     Mo       0.91811    0.33164    0.06455    1.000
    S22      S        0.83501    0.41503    0.99554    1.000
    S23      S        0.83472    0.41488    0.13348    1.000
    Mo24     Mo       0.16819    0.58155    0.06475    1.000
    S25      S        0.08496    0.66499    0.99579    1.000
    S26      S        0.08468    0.66486    0.13367    1.000
    Mo27     Mo       0.41818    0.58133    0.06459    1.000
    S28      S        0.33481    0.66476    0.99580    1.000
    S29      S        0.33490    0.66460    0.13377    1.000
    Mo30     Mo       0.66819    0.58141    0.06440    1.000
    S31      S        0.58476    0.66477    0.99551    1.000
    S32      S        0.58513    0.66490    0.13332    1.000
    Mo33     Mo       0.91813    0.58160    0.06460    1.000
    S34      S        0.83490    0.66498    0.99557    1.000
    S35      S        0.83465    0.66485    0.13353    1.000
    Mo36     Mo       0.16801    0.83155    0.06473    1.000
    S37      S        0.08469    0.91481    0.99567    1.000
    S38      S        0.08457    0.91501    0.13355    1.000
    Mo39     Mo       0.41799    0.83136    0.06477    1.000
    S40      S        0.33457    0.91458    0.99578    1.000
    S41      S        0.33470    0.91491    0.13366    1.000
    Mo42     Mo       0.66807    0.83156    0.06450    1.000
    S43      S        0.58442    0.91470    0.99569    1.000
    S44      S        0.58476    0.91482    0.13361    1.000
    Mo45     Mo       0.91798    0.83159    0.06457    1.000
    S46      S        0.83473    0.91508    0.99563    1.000
    S47      S        0.83461    0.91490    0.13355    1.000
    C48      C        0.37009    0.61573    0.31730    1.000
    H49      H        0.36787    0.48690    0.25752    1.000
    H50      H        0.50032    0.62227    0.25704    1.000
    C51      C        0.43154    0.55755    0.28580    1.000
    H52      H        0.41859    0.44103    0.35578    1.000
    H53      H        0.55095    0.57651    0.35553    1.000
    C54      C        0.48707    0.50632    0.32716    1.000
    H55      H        0.58599    0.41216    0.32482    1.000
    H56      H        0.61962    0.51304    0.26703    1.000
    H57      H        0.48587    0.37718    0.26658    1.000
    C58      C        0.54825    0.44883    0.29466    1.000
    H59      H        0.33215    0.65080    0.28627    1.000
    H60      H        0.43222    0.68864    0.34478    1.000
    H61      H        0.29881    0.55232    0.34514    1.000
