# CIF file generated by openbabel 3.1.0, see https://openbabel.org
data_I
_chemical_name_common ''
_cell_length_a 13.105
_cell_length_b 13.105
_cell_length_c 23.0122
_cell_angle_alpha 90
_cell_angle_beta 90
_cell_angle_gamma 120
loop_
    _atom_site_label
    _atom_site_type_symbol
    _atom_site_fract_x
    _atom_site_fract_y
    _atom_site_fract_z
    _atom_site_occupancy
    Mo0      Mo       0.16364    0.07834    0.06668    1.000
    S1       S        0.08040    0.16177    0.99771    1.000
    S2       S        0.08039    0.16174    0.13570    1.000
    Mo3      Mo       0.41385    0.07832    0.06665    1.000
    S4       S        0.33043    0.16171    0.99775    1.000
    S5       S        0.33024    0.16121    0.13557    1.000
    Mo6      Mo       0.66384    0.07849    0.06664    1.000
    S7       S        0.58047    0.16172    0.99765    1.000
    S8       S        0.58052    0.16184    0.13564    1.000
    Mo9      Mo       0.91380    0.07848    0.06667    1.000
    S10      S        0.83061    0.16203    0.99775    1.000
    S11      S        0.83042    0.16176    0.13563    1.000
    Mo12     Mo       0.16364    0.32836    0.06669    1.000
    S13      S        0.08055    0.41204    0.99786    1.000
    S14      S        0.08044    0.41171    0.13582    1.000
    Mo15     Mo       0.41390    0.32830    0.06685    1.000
    S16      S        0.33051    0.41171    0.99787    1.000
    S17      S        0.33011    0.41147    0.13565    1.000
    Mo18     Mo       0.66377    0.32843    0.06657    1.000
    S19      S        0.58036    0.41176    0.99773    1.000
    S20      S        0.58062    0.41145    0.13571    1.000
    Mo21     Mo       0.91386    0.32858    0.06678    1.000
    S22      S        0.83070    0.41209    0.99783    1.000
    S23      S        0.83029    0.41170    0.13576    1.000
    Mo24     Mo       0.16384    0.57850    0.06696    1.000
    S25      S        0.08053    0.66186    0.99800    1.000
    S26      S        0.08051    0.66192    0.13593    1.000
    Mo27     Mo       0.41389    0.57845    0.06685    1.000
    S28      S        0.33039    0.66163    0.99797    1.000
    S29      S        0.33071    0.66186    0.13588    1.000
    Mo30     Mo       0.66359    0.57822    0.06691    1.000
    S31      S        0.58041    0.66163    0.99778    1.000
    S32      S        0.58078    0.66235    0.13564    1.000
    Mo33     Mo       0.91380    0.57852    0.06694    1.000
    S34      S        0.83031    0.66158    0.99798    1.000
    S35      S        0.83022    0.66174    0.13591    1.000
    Mo36     Mo       0.16382    0.82851    0.06690    1.000
    S37      S        0.08039    0.91159    0.99783    1.000
    S38      S        0.08035    0.91187    0.13578    1.000
    Mo39     Mo       0.41388    0.82845    0.06679    1.000
    S40      S        0.33031    0.91156    0.99783    1.000
    S41      S        0.33068    0.91191    0.13575    1.000
    Mo42     Mo       0.66386    0.82860    0.06652    1.000
    S43      S        0.58036    0.91180    0.99765    1.000
    S44      S        0.58071    0.91191    0.13563    1.000
    Mo45     Mo       0.91369    0.82838    0.06680    1.000
    S46      S        0.83062    0.91180    0.99769    1.000
    S47      S        0.83031    0.91184    0.13564    1.000
    H48      H        0.45524    0.27063    0.25966    1.000
    H49      H        0.35245    0.20082    0.31679    1.000
    H50      H        0.32325    0.27619    0.26126    1.000
    C51      C        0.39276    0.27802    0.28827    1.000
    H52      H        0.39357    0.39753    0.35462    1.000
    H53      H        0.52626    0.39448    0.35003    1.000
    C54      C        0.45440    0.39113    0.32454    1.000
    S55      S        0.52738    0.52894    0.28047    1.000
    H56      H        0.42787    0.51718    0.25637    1.000
