# CIF file generated by openbabel 3.1.0, see https://openbabel.org
data_I
_chemical_name_common ''
_cell_length_a 13.105
_cell_length_b 13.105
_cell_length_c 23.0122
_cell_angle_alpha 90
_cell_angle_beta 90
_cell_angle_gamma 120
loop_
    _atom_site_label
    _atom_site_type_symbol
    _atom_site_fract_x
    _atom_site_fract_y
    _atom_site_fract_z
    _atom_site_occupancy
    Mo0      Mo       0.16245    0.07233    0.06661    1.000
    S1       S        0.07923    0.15579    0.99771    1.000
    S2       S        0.07922    0.15564    0.13573    1.000
    Mo3      Mo       0.41253    0.07226    0.06634    1.000
    S4       S        0.32917    0.15594    0.99760    1.000
    S5       S        0.32903    0.15502    0.13539    1.000
    Mo6      Mo       0.66257    0.07240    0.06659    1.000
    S7       S        0.57940    0.15582    0.99756    1.000
    S8       S        0.57896    0.15550    0.13555    1.000
    Mo9      Mo       0.91260    0.07241    0.06667    1.000
    S10      S        0.82935    0.15579    0.99770    1.000
    S11      S        0.82917    0.15566    0.13561    1.000
    Mo12     Mo       0.16258    0.32237    0.06674    1.000
    S13      S        0.07919    0.40574    0.99783    1.000
    S14      S        0.07920    0.40568    0.13577    1.000
    Mo15     Mo       0.41230    0.32229    0.06685    1.000
    S16      S        0.32916    0.40562    0.99774    1.000
    S17      S        0.32905    0.40571    0.13569    1.000
    Mo18     Mo       0.66246    0.32227    0.06665    1.000
    S19      S        0.57905    0.40576    0.99787    1.000
    S20      S        0.57911    0.40546    0.13572    1.000
    Mo21     Mo       0.91252    0.32237    0.06674    1.000
    S22      S        0.82923    0.40577    0.99779    1.000
    S23      S        0.82903    0.40555    0.13573    1.000
    Mo24     Mo       0.16252    0.57236    0.06681    1.000
    S25      S        0.07904    0.65548    0.99780    1.000
    S26      S        0.07933    0.65589    0.13575    1.000
    Mo27     Mo       0.41251    0.57227    0.06665    1.000
    S28      S        0.32901    0.65548    0.99775    1.000
    S29      S        0.32939    0.65578    0.13570    1.000
    Mo30     Mo       0.66251    0.57239    0.06683    1.000
    S31      S        0.57926    0.65560    0.99772    1.000
    S32      S        0.57929    0.65604    0.13563    1.000
    Mo33     Mo       0.91251    0.57233    0.06684    1.000
    S34      S        0.82916    0.65558    0.99789    1.000
    S35      S        0.82917    0.65574    0.13583    1.000
    Mo36     Mo       0.16249    0.82234    0.06663    1.000
    S37      S        0.07904    0.90560    0.99771    1.000
    S38      S        0.07925    0.90577    0.13563    1.000
    Mo39     Mo       0.41251    0.82234    0.06657    1.000
    S40      S        0.32898    0.90543    0.99753    1.000
    S41      S        0.32929    0.90584    0.13547    1.000
    Mo42     Mo       0.66257    0.82246    0.06657    1.000
    S43      S        0.57920    0.90572    0.99760    1.000
    S44      S        0.57919    0.90576    0.13553    1.000
    Mo45     Mo       0.91248    0.82235    0.06675    1.000
    S46      S        0.82930    0.90571    0.99770    1.000
    S47      S        0.82913    0.90577    0.13565    1.000
    H48      H        0.45087    0.52638    0.25758    1.000
    H49      H        0.54690    0.59282    0.31740    1.000
    H50      H        0.57808    0.51312    0.26511    1.000
    C51      C        0.50715    0.51546    0.28899    1.000
    H52      H        0.49170    0.39195    0.35680    1.000
    H53      H        0.36502    0.40507    0.34851    1.000
    C54      C        0.43637    0.40310    0.32500    1.000
    S55      S        0.35966    0.26605    0.28063    1.000
    H56      H        0.45767    0.27519    0.25608    1.000
