# CIF file generated by openbabel 3.1.0, see https://openbabel.org
data_I
_chemical_name_common ''
_cell_length_a 13.105
_cell_length_b 13.105
_cell_length_c 23.0122
_cell_angle_alpha 90
_cell_angle_beta 90
_cell_angle_gamma 120
loop_
    _atom_site_label
    _atom_site_type_symbol
    _atom_site_fract_x
    _atom_site_fract_y
    _atom_site_fract_z
    _atom_site_occupancy
    Mo0      Mo       0.16718    0.08616    0.06655    1.000
    S1       S        0.08387    0.16952    0.99761    1.000
    S2       S        0.08389    0.16957    0.13559    1.000
    Mo3      Mo       0.41716    0.08608    0.06642    1.000
    S4       S        0.33367    0.16921    0.99743    1.000
    S5       S        0.33401    0.16965    0.13540    1.000
    Mo6      Mo       0.66718    0.08615    0.06640    1.000
    S7       S        0.58383    0.16943    0.99744    1.000
    S8       S        0.58383    0.16946    0.13534    1.000
    Mo9      Mo       0.91716    0.08620    0.06654    1.000
    S10      S        0.83391    0.16945    0.99748    1.000
    S11      S        0.83376    0.16950    0.13542    1.000
    Mo12     Mo       0.16724    0.33621    0.06655    1.000
    S13      S        0.08399    0.41966    0.99763    1.000
    S14      S        0.08349    0.41930    0.13551    1.000
    Mo15     Mo       0.41725    0.33610    0.06617    1.000
    S16      S        0.33375    0.41959    0.99742    1.000
    S17      S        0.33412    0.41915    0.13517    1.000
    Mo18     Mo       0.66719    0.33615    0.06639    1.000
    S19      S        0.58403    0.41964    0.99737    1.000
    S20      S        0.58374    0.41937    0.13537    1.000
    Mo21     Mo       0.91709    0.33611    0.06641    1.000
    S22      S        0.83393    0.41961    0.99749    1.000
    S23      S        0.83371    0.41933    0.13546    1.000
    Mo24     Mo       0.16736    0.58624    0.06672    1.000
    S25      S        0.08389    0.66942    0.99770    1.000
    S26      S        0.08386    0.66945    0.13567    1.000
    Mo27     Mo       0.41706    0.58618    0.06658    1.000
    S28      S        0.33369    0.66931    0.99752    1.000
    S29      S        0.33420    0.66997    0.13551    1.000
    Mo30     Mo       0.66719    0.58614    0.06646    1.000
    S31      S        0.58375    0.66944    0.99755    1.000
    S32      S        0.58401    0.66974    0.13536    1.000
    Mo33     Mo       0.91719    0.58611    0.06659    1.000
    S34      S        0.83396    0.66953    0.99760    1.000
    S35      S        0.83373    0.66942    0.13552    1.000
    Mo36     Mo       0.16712    0.83611    0.06662    1.000
    S37      S        0.08377    0.91942    0.99765    1.000
    S38      S        0.08380    0.91953    0.13553    1.000
    Mo39     Mo       0.41713    0.83612    0.06631    1.000
    S40      S        0.33357    0.91936    0.99749    1.000
    S41      S        0.33395    0.91948    0.13546    1.000
    Mo42     Mo       0.66717    0.83627    0.06642    1.000
    S43      S        0.58382    0.91948    0.99741    1.000
    S44      S        0.58374    0.91949    0.13538    1.000
    Mo45     Mo       0.91712    0.83617    0.06657    1.000
    S46      S        0.83390    0.91955    0.99755    1.000
    S47      S        0.83371    0.91952    0.13548    1.000
    H48      H        0.49827    0.59456    0.25896    1.000
    H49      H        0.53687    0.54308    0.32182    1.000
    H50      H        0.44178    0.44180    0.26909    1.000
    C51      C        0.46532    0.52436    0.29140    1.000
    H52      H        0.32746    0.44764    0.35756    1.000
    H53      H        0.38388    0.59940    0.34598    1.000
    C54      C        0.35980    0.51621    0.32438    1.000
    S55      S        0.23292    0.48990    0.27740    1.000
    H56      H        0.20559    0.38111    0.25899    1.000
