# CIF file generated by openbabel 3.1.0, see https://openbabel.org
data_I
_chemical_name_common ''
_cell_length_a 13.105
_cell_length_b 13.105
_cell_length_c 23.0122
_cell_angle_alpha 90
_cell_angle_beta 90
_cell_angle_gamma 120
loop_
    _atom_site_label
    _atom_site_type_symbol
    _atom_site_fract_x
    _atom_site_fract_y
    _atom_site_fract_z
    _atom_site_occupancy
    Mo0      Mo       0.17730    0.08389    0.06729    1.000
    S1       S        0.09374    0.16704    0.99837    1.000
    S2       S        0.09431    0.16755    0.13634    1.000
    Mo3      Mo       0.42727    0.08375    0.06716    1.000
    S4       S        0.34371    0.16678    0.99808    1.000
    S5       S        0.34426    0.16757    0.13605    1.000
    Mo6      Mo       0.67726    0.08375    0.06736    1.000
    S7       S        0.59395    0.16681    0.99821    1.000
    S8       S        0.59391    0.16729    0.13613    1.000
    Mo9      Mo       0.92724    0.08386    0.06747    1.000
    S10      S        0.84392    0.16695    0.99843    1.000
    S11      S        0.84398    0.16732    0.13636    1.000
    Mo12     Mo       0.17750    0.33401    0.06707    1.000
    S13      S        0.09407    0.41737    0.99828    1.000
    S14      S        0.09394    0.41696    0.13631    1.000
    Mo15     Mo       0.42749    0.33391    0.06667    1.000
    S16      S        0.34402    0.41731    0.99779    1.000
    S17      S        0.34424    0.41709    0.13540    1.000
    Mo18     Mo       0.67744    0.33373    0.06698    1.000
    S19      S        0.59445    0.41731    0.99790    1.000
    S20      S        0.59406    0.41699    0.13581    1.000
    Mo21     Mo       0.92737    0.33378    0.06723    1.000
    S22      S        0.84437    0.41731    0.99821    1.000
    S23      S        0.84385    0.41699    0.13617    1.000
    Mo24     Mo       0.17732    0.58380    0.06746    1.000
    S25      S        0.09401    0.66720    0.99851    1.000
    S26      S        0.09385    0.66702    0.13643    1.000
    Mo27     Mo       0.42727    0.58382    0.06703    1.000
    S28      S        0.34373    0.66723    0.99833    1.000
    S29      S        0.34409    0.66700    0.13637    1.000
    Mo30     Mo       0.67736    0.58384    0.06708    1.000
    S31      S        0.59411    0.66743    0.99819    1.000
    S32      S        0.59382    0.66693    0.13617    1.000
    Mo33     Mo       0.92732    0.58382    0.06734    1.000
    S34      S        0.84425    0.66742    0.99834    1.000
    S35      S        0.84368    0.66694    0.13626    1.000
    Mo36     Mo       0.17716    0.83380    0.06747    1.000
    S37      S        0.09382    0.91710    0.99847    1.000
    S38      S        0.09397    0.91737    0.13638    1.000
    Mo39     Mo       0.42715    0.83375    0.06735    1.000
    S40      S        0.34358    0.91687    0.99838    1.000
    S41      S        0.34399    0.91732    0.13632    1.000
    Mo42     Mo       0.67722    0.83386    0.06733    1.000
    S43      S        0.59380    0.91712    0.99841    1.000
    S44      S        0.59381    0.91706    0.13633    1.000
    Mo45     Mo       0.92723    0.83387    0.06743    1.000
    S46      S        0.84398    0.91729    0.99848    1.000
    S47      S        0.84378    0.91709    0.13640    1.000
    H48      H        0.49123    0.48785    0.25357    1.000
    H49      H        0.52662    0.41270    0.30679    1.000
    H50      H        0.41633    0.33188    0.25447    1.000
    C51      C        0.45440    0.41060    0.28188    1.000
    H52      H        0.32664    0.33400    0.35246    1.000
    H53      H        0.40022    0.48903    0.34987    1.000
    C54      C        0.36206    0.40951    0.32320    1.000
    S55      S        0.23576    0.41029    0.28619    1.000
    H56      H        0.19047    0.30293    0.26099    1.000
