# CIF file generated by openbabel 3.1.0, see https://openbabel.org
data_I
_chemical_name_common ''
_cell_length_a 13.105
_cell_length_b 13.105
_cell_length_c 23.0122
_cell_angle_alpha 90
_cell_angle_beta 90
_cell_angle_gamma 120
loop_
    _atom_site_label
    _atom_site_type_symbol
    _atom_site_fract_x
    _atom_site_fract_y
    _atom_site_fract_z
    _atom_site_occupancy
    Mo0      Mo       0.15961    0.08197    0.06641    1.000
    S1       S        0.07624    0.16511    0.99737    1.000
    S2       S        0.07637    0.16545    0.13537    1.000
    Mo3      Mo       0.40966    0.08192    0.06635    1.000
    S4       S        0.32622    0.16515    0.99739    1.000
    S5       S        0.32646    0.16553    0.13531    1.000
    Mo6      Mo       0.65967    0.08192    0.06631    1.000
    S7       S        0.57618    0.16499    0.99727    1.000
    S8       S        0.57646    0.16540    0.13522    1.000
    Mo9      Mo       0.90967    0.08198    0.06638    1.000
    S10      S        0.82639    0.16529    0.99735    1.000
    S11      S        0.82635    0.16538    0.13528    1.000
    Mo12     Mo       0.15954    0.33189    0.06619    1.000
    S13      S        0.07636    0.41535    0.99729    1.000
    S14      S        0.07639    0.41524    0.13532    1.000
    Mo15     Mo       0.40972    0.33203    0.06613    1.000
    S16      S        0.32628    0.41527    0.99714    1.000
    S17      S        0.32591    0.41520    0.13489    1.000
    Mo18     Mo       0.65983    0.33184    0.06605    1.000
    S19      S        0.57643    0.41530    0.99712    1.000
    S20      S        0.57687    0.41520    0.13487    1.000
    Mo21     Mo       0.90978    0.33202    0.06628    1.000
    S22      S        0.82657    0.41539    0.99724    1.000
    S23      S        0.82627    0.41522    0.13520    1.000
    Mo24     Mo       0.15968    0.58188    0.06635    1.000
    S25      S        0.07638    0.66533    0.99741    1.000
    S26      S        0.07623    0.66512    0.13533    1.000
    Mo27     Mo       0.40960    0.58191    0.06621    1.000
    S28      S        0.32630    0.66534    0.99735    1.000
    S29      S        0.32635    0.66515    0.13533    1.000
    Mo30     Mo       0.65972    0.58198    0.06618    1.000
    S31      S        0.57638    0.66545    0.99735    1.000
    S32      S        0.57624    0.66511    0.13527    1.000
    Mo33     Mo       0.90964    0.58194    0.06630    1.000
    S34      S        0.82646    0.66548    0.99734    1.000
    S35      S        0.82619    0.66519    0.13527    1.000
    Mo36     Mo       0.15959    0.83190    0.06643    1.000
    S37      S        0.07628    0.91527    0.99747    1.000
    S38      S        0.07629    0.91530    0.13538    1.000
    Mo39     Mo       0.40960    0.83190    0.06638    1.000
    S40      S        0.32618    0.91518    0.99744    1.000
    S41      S        0.32630    0.91528    0.13536    1.000
    Mo42     Mo       0.65965    0.83200    0.06640    1.000
    S43      S        0.57630    0.91521    0.99741    1.000
    S44      S        0.57628    0.91534    0.13535    1.000
    Mo45     Mo       0.90962    0.83201    0.06641    1.000
    S46      S        0.82626    0.91533    0.99745    1.000
    S47      S        0.82631    0.91539    0.13538    1.000
    H48      H        0.49618    0.33414    0.34241    1.000
    H49      H        0.61487    0.42497    0.29554    1.000
    H50      H        0.56754    0.48924    0.34906    1.000
    C51      C        0.53741    0.41666    0.31809    1.000
    H52      H        0.49398    0.50065    0.24827    1.000
    H53      H        0.42029    0.34574    0.24375    1.000
    C54      C        0.45168    0.41974    0.27389    1.000
    S55      S        0.31371    0.40348    0.30561    1.000
    H56      H        0.36564    0.50297    0.33794    1.000
