# CIF file generated by openbabel 3.1.0, see https://openbabel.org
data_I
_chemical_name_common ''
_cell_length_a 13.105
_cell_length_b 13.105
_cell_length_c 23.0122
_cell_angle_alpha 90
_cell_angle_beta 90
_cell_angle_gamma 120
loop_
    _atom_site_label
    _atom_site_type_symbol
    _atom_site_fract_x
    _atom_site_fract_y
    _atom_site_fract_z
    _atom_site_occupancy
    Mo0      Mo       0.16750    0.08347    0.06663    1.000
    S1       S        0.08396    0.16661    0.99767    1.000
    S2       S        0.08428    0.16691    0.13561    1.000
    Mo3      Mo       0.41747    0.08342    0.06666    1.000
    S4       S        0.33409    0.16654    0.99758    1.000
    S5       S        0.33422    0.16692    0.13555    1.000
    Mo6      Mo       0.66755    0.08353    0.06674    1.000
    S7       S        0.58424    0.16681    0.99775    1.000
    S8       S        0.58414    0.16683    0.13563    1.000
    Mo9      Mo       0.91747    0.08346    0.06674    1.000
    S10      S        0.83422    0.16691    0.99783    1.000
    S11      S        0.83419    0.16680    0.13572    1.000
    Mo12     Mo       0.16739    0.33337    0.06649    1.000
    S13      S        0.08412    0.41690    0.99772    1.000
    S14      S        0.08436    0.41680    0.13572    1.000
    Mo15     Mo       0.41760    0.33330    0.06638    1.000
    S16      S        0.33418    0.41682    0.99746    1.000
    S17      S        0.33408    0.41626    0.13511    1.000
    Mo18     Mo       0.66760    0.33350    0.06669    1.000
    S19      S        0.58448    0.41695    0.99765    1.000
    S20      S        0.58399    0.41664    0.13559    1.000
    Mo21     Mo       0.91760    0.33353    0.06679    1.000
    S22      S        0.83431    0.41681    0.99780    1.000
    S23      S        0.83418    0.41684    0.13572    1.000
    Mo24     Mo       0.16746    0.58347    0.06672    1.000
    S25      S        0.08405    0.66678    0.99779    1.000
    S26      S        0.08416    0.66678    0.13570    1.000
    Mo27     Mo       0.41748    0.58347    0.06661    1.000
    S28      S        0.33409    0.66683    0.99771    1.000
    S29      S        0.33424    0.66703    0.13555    1.000
    Mo30     Mo       0.66743    0.58346    0.06673    1.000
    S31      S        0.58419    0.66689    0.99776    1.000
    S32      S        0.58404    0.66681    0.13571    1.000
    Mo33     Mo       0.91747    0.58345    0.06676    1.000
    S34      S        0.83414    0.66680    0.99781    1.000
    S35      S        0.83405    0.66674    0.13571    1.000
    Mo36     Mo       0.16747    0.83343    0.06672    1.000
    S37      S        0.08399    0.91663    0.99778    1.000
    S38      S        0.08419    0.91687    0.13563    1.000
    Mo39     Mo       0.41752    0.83359    0.06664    1.000
    S40      S        0.33411    0.91675    0.99771    1.000
    S41      S        0.33415    0.91682    0.13565    1.000
    Mo42     Mo       0.66746    0.83350    0.06674    1.000
    S43      S        0.58425    0.91689    0.99777    1.000
    S44      S        0.58412    0.91686    0.13568    1.000
    Mo45     Mo       0.91740    0.83344    0.06675    1.000
    S46      S        0.83407    0.91680    0.99779    1.000
    S47      S        0.83410    0.91681    0.13571    1.000
    H48      H        0.41170    0.42250    0.31864    1.000
    H49      H        0.47039    0.49742    0.25201    1.000
    H50      H        0.49486    0.57830    0.31704    1.000
    C51      C        0.43026    0.50033    0.29330    1.000
    H52      H        0.33463    0.58052    0.25504    1.000
    H53      H        0.25171    0.42572    0.25955    1.000
    C54      C        0.31740    0.50504    0.28201    1.000
    S55      S        0.23945    0.50839    0.34892    1.000
    H56      H        0.32725    0.61147    0.36992    1.000
