# CIF file generated by openbabel 3.1.0, see https://openbabel.org
data_I
_chemical_name_common ''
_cell_length_a 13.105
_cell_length_b 13.105
_cell_length_c 23.0122
_cell_angle_alpha 90
_cell_angle_beta 90
_cell_angle_gamma 120
loop_
    _atom_site_label
    _atom_site_type_symbol
    _atom_site_fract_x
    _atom_site_fract_y
    _atom_site_fract_z
    _atom_site_occupancy
    Mo0      Mo       0.16360    0.08155    0.06684    1.000
    S1       S        0.08011    0.16459    0.99777    1.000
    S2       S        0.08031    0.16501    0.13572    1.000
    Mo3      Mo       0.41368    0.08158    0.06686    1.000
    S4       S        0.33029    0.16483    0.99789    1.000
    S5       S        0.33031    0.16499    0.13584    1.000
    Mo6      Mo       0.66366    0.08152    0.06683    1.000
    S7       S        0.58030    0.16480    0.99786    1.000
    S8       S        0.58038    0.16490    0.13578    1.000
    Mo9      Mo       0.91360    0.08147    0.06683    1.000
    S10      S        0.83031    0.16486    0.99788    1.000
    S11      S        0.83033    0.16488    0.13576    1.000
    Mo12     Mo       0.16334    0.33140    0.06657    1.000
    S13      S        0.08013    0.41498    0.99776    1.000
    S14      S        0.08032    0.41478    0.13572    1.000
    Mo15     Mo       0.41351    0.33151    0.06676    1.000
    S16      S        0.33027    0.41490    0.99770    1.000
    S17      S        0.32950    0.41448    0.13550    1.000
    Mo18     Mo       0.66370    0.33147    0.06675    1.000
    S19      S        0.58035    0.41499    0.99788    1.000
    S20      S        0.58037    0.41456    0.13566    1.000
    Mo21     Mo       0.91362    0.33158    0.06682    1.000
    S22      S        0.83034    0.41498    0.99787    1.000
    S23      S        0.83026    0.41481    0.13583    1.000
    Mo24     Mo       0.16361    0.58151    0.06683    1.000
    S25      S        0.08028    0.66494    0.99794    1.000
    S26      S        0.08037    0.66486    0.13582    1.000
    Mo27     Mo       0.41353    0.58145    0.06681    1.000
    S28      S        0.33032    0.66493    0.99791    1.000
    S29      S        0.33028    0.66478    0.13584    1.000
    Mo30     Mo       0.66367    0.58155    0.06695    1.000
    S31      S        0.58034    0.66480    0.99795    1.000
    S32      S        0.58024    0.66498    0.13583    1.000
    Mo33     Mo       0.91364    0.58153    0.06692    1.000
    S34      S        0.83034    0.66490    0.99802    1.000
    S35      S        0.83037    0.66489    0.13594    1.000
    Mo36     Mo       0.16368    0.83158    0.06688    1.000
    S37      S        0.08024    0.91480    0.99794    1.000
    S38      S        0.08038    0.91497    0.13584    1.000
    Mo39     Mo       0.41368    0.83154    0.06688    1.000
    S40      S        0.33039    0.91491    0.99792    1.000
    S41      S        0.33039    0.91493    0.13582    1.000
    Mo42     Mo       0.66365    0.83154    0.06687    1.000
    S43      S        0.58033    0.91481    0.99791    1.000
    S44      S        0.58034    0.91491    0.13583    1.000
    Mo45     Mo       0.91364    0.83154    0.06694    1.000
    S46      S        0.83024    0.91473    0.99793    1.000
    S47      S        0.83031    0.91489    0.13587    1.000
    H48      H        0.63203    0.48648    0.32061    1.000
    H49      H        0.66739    0.57629    0.25774    1.000
    H50      H        0.63000    0.62041    0.32322    1.000
    C51      C        0.61020    0.54429    0.29607    1.000
    H52      H        0.45896    0.53547    0.25159    1.000
    H53      H        0.46113    0.40215    0.25092    1.000
    C54      C        0.48060    0.47897    0.27740    1.000
    S55      S        0.37319    0.41568    0.33816    1.000
    H56      H        0.40102    0.51919    0.36387    1.000
