# CIF file generated by openbabel 3.1.0, see https://openbabel.org
data_I
_chemical_name_common ''
_cell_length_a 13.105
_cell_length_b 13.105
_cell_length_c 23.0122
_cell_angle_alpha 90
_cell_angle_beta 90
_cell_angle_gamma 120
loop_
    _atom_site_label
    _atom_site_type_symbol
    _atom_site_fract_x
    _atom_site_fract_y
    _atom_site_fract_z
    _atom_site_occupancy
    Mo0      Mo       0.16418    0.07908    0.06612    1.000
    S1       S        0.08081    0.16240    0.99719    1.000
    S2       S        0.08101    0.16254    0.13513    1.000
    Mo3      Mo       0.41440    0.07909    0.06611    1.000
    S4       S        0.33094    0.16238    0.99715    1.000
    S5       S        0.33082    0.16213    0.13497    1.000
    Mo6      Mo       0.66438    0.07915    0.06624    1.000
    S7       S        0.58108    0.16240    0.99719    1.000
    S8       S        0.58104    0.16256    0.13513    1.000
    Mo9      Mo       0.91427    0.07915    0.06624    1.000
    S10      S        0.83101    0.16252    0.99727    1.000
    S11      S        0.83106    0.16264    0.13517    1.000
    Mo12     Mo       0.16414    0.32908    0.06608    1.000
    S13      S        0.08100    0.41266    0.99719    1.000
    S14      S        0.08104    0.41254    0.13512    1.000
    Mo15     Mo       0.41426    0.32899    0.06615    1.000
    S16      S        0.33099    0.41247    0.99720    1.000
    S17      S        0.33055    0.41216    0.13502    1.000
    Mo18     Mo       0.66442    0.32909    0.06606    1.000
    S19      S        0.58097    0.41247    0.99718    1.000
    S20      S        0.58114    0.41218    0.13501    1.000
    Mo21     Mo       0.91438    0.32927    0.06618    1.000
    S22      S        0.83115    0.41266    0.99719    1.000
    S23      S        0.83097    0.41254    0.13511    1.000
    Mo24     Mo       0.16441    0.57924    0.06622    1.000
    S25      S        0.08109    0.66266    0.99730    1.000
    S26      S        0.08103    0.66257    0.13516    1.000
    Mo27     Mo       0.41432    0.57910    0.06625    1.000
    S28      S        0.33114    0.66255    0.99729    1.000
    S29      S        0.33104    0.66246    0.13523    1.000
    Mo30     Mo       0.66428    0.57908    0.06625    1.000
    S31      S        0.58094    0.66238    0.99734    1.000
    S32      S        0.58095    0.66237    0.13530    1.000
    Mo33     Mo       0.91433    0.57925    0.06621    1.000
    S34      S        0.83092    0.66255    0.99729    1.000
    S35      S        0.83092    0.66245    0.13522    1.000
    Mo36     Mo       0.16440    0.82928    0.06624    1.000
    S37      S        0.08086    0.91240    0.99725    1.000
    S38      S        0.08098    0.91260    0.13518    1.000
    Mo39     Mo       0.41441    0.82916    0.06626    1.000
    S40      S        0.33106    0.91240    0.99725    1.000
    S41      S        0.33113    0.91260    0.13517    1.000
    Mo42     Mo       0.66429    0.82906    0.06631    1.000
    S43      S        0.58108    0.91243    0.99733    1.000
    S44      S        0.58103    0.91250    0.13523    1.000
    Mo45     Mo       0.91426    0.82915    0.06626    1.000
    S46      S        0.83085    0.91243    0.99733    1.000
    S47      S        0.83098    0.91249    0.13523    1.000
    H48      H        0.32554    0.29053    0.31682    1.000
    H49      H        0.38703    0.27025    0.25221    1.000
    H50      H        0.45984    0.28928    0.31941    1.000
    C51      C        0.40793    0.31724    0.29376    1.000
    H52      H        0.55690    0.47759    0.25903    1.000
    H53      H        0.42289    0.47844    0.25880    1.000
    C54      C        0.47600    0.45064    0.28349    1.000
    S55      S        0.51363    0.54006    0.35110    1.000
    H56      H        0.57918    0.49807    0.37548    1.000
