# CIF file generated by openbabel 3.1.0, see https://openbabel.org
data_I
_chemical_name_common ''
_cell_length_a 13.105
_cell_length_b 13.105
_cell_length_c 23.0122
_cell_angle_alpha 90
_cell_angle_beta 90
_cell_angle_gamma 120
loop_
    _atom_site_label
    _atom_site_type_symbol
    _atom_site_fract_x
    _atom_site_fract_y
    _atom_site_fract_z
    _atom_site_occupancy
    Mo0      Mo       0.16536    0.08119    0.06666    1.000
    S1       S        0.08201    0.16458    0.99776    1.000
    S2       S        0.08215    0.16455    0.13573    1.000
    Mo3      Mo       0.41540    0.08119    0.06665    1.000
    S4       S        0.33206    0.16456    0.99768    1.000
    S5       S        0.33190    0.16424    0.13553    1.000
    Mo6      Mo       0.66538    0.08120    0.06678    1.000
    S7       S        0.58214    0.16456    0.99776    1.000
    S8       S        0.58199    0.16456    0.13572    1.000
    Mo9      Mo       0.91540    0.08120    0.06678    1.000
    S10      S        0.83204    0.16451    0.99782    1.000
    S11      S        0.83203    0.16448    0.13575    1.000
    Mo12     Mo       0.16536    0.33121    0.06672    1.000
    S13      S        0.08199    0.41454    0.99781    1.000
    S14      S        0.08205    0.41450    0.13575    1.000
    Mo15     Mo       0.41537    0.33119    0.06673    1.000
    S16      S        0.33209    0.41462    0.99777    1.000
    S17      S        0.33196    0.41463    0.13563    1.000
    Mo18     Mo       0.66543    0.33120    0.06670    1.000
    S19      S        0.58210    0.41463    0.99776    1.000
    S20      S        0.58230    0.41469    0.13557    1.000
    Mo21     Mo       0.91536    0.33117    0.06680    1.000
    S22      S        0.83213    0.41453    0.99779    1.000
    S23      S        0.83200    0.41451    0.13575    1.000
    Mo24     Mo       0.16537    0.58120    0.06678    1.000
    S25      S        0.08205    0.66453    0.99782    1.000
    S26      S        0.08208    0.66463    0.13571    1.000
    Mo27     Mo       0.41542    0.58131    0.06675    1.000
    S28      S        0.33203    0.66458    0.99781    1.000
    S29      S        0.33203    0.66458    0.13576    1.000
    Mo30     Mo       0.66548    0.58135    0.06673    1.000
    S31      S        0.58211    0.66468    0.99782    1.000
    S32      S        0.58210    0.66462    0.13577    1.000
    Mo33     Mo       0.91537    0.58119    0.06677    1.000
    S34      S        0.83213    0.66459    0.99779    1.000
    S35      S        0.83212    0.66459    0.13575    1.000
    Mo36     Mo       0.16543    0.83129    0.06673    1.000
    S37      S        0.08200    0.91450    0.99774    1.000
    S38      S        0.08217    0.91466    0.13571    1.000
    Mo39     Mo       0.41537    0.83124    0.06678    1.000
    S40      S        0.33208    0.91450    0.99774    1.000
    S41      S        0.33207    0.91467    0.13571    1.000
    Mo42     Mo       0.66542    0.83128    0.06681    1.000
    S43      S        0.58207    0.91455    0.99783    1.000
    S44      S        0.58201    0.91457    0.13577    1.000
    Mo45     Mo       0.91544    0.83123    0.06677    1.000
    S46      S        0.83205    0.91455    0.99783    1.000
    S47      S        0.83214    0.91457    0.13576    1.000
    H48      H        0.55722    0.47305    0.32062    1.000
    H49      H        0.50340    0.50441    0.25619    1.000
    H50      H        0.42072    0.47018    0.32129    1.000
    C51      C        0.47795    0.44952    0.29537    1.000
    H52      H        0.33668    0.29534    0.25206    1.000
    H53      H        0.47228    0.29776    0.25343    1.000
    C54      C        0.41448    0.31889    0.27853    1.000
    S55      S        0.36902    0.21559    0.34120    1.000
    H56      H        0.29425    0.24665    0.36512    1.000
