# CIF file generated by openbabel 3.1.0, see https://openbabel.org
data_I
_chemical_name_common ''
_cell_length_a 13.105
_cell_length_b 13.105
_cell_length_c 23.0122
_cell_angle_alpha 90
_cell_angle_beta 90
_cell_angle_gamma 120
loop_
    _atom_site_label
    _atom_site_type_symbol
    _atom_site_fract_x
    _atom_site_fract_y
    _atom_site_fract_z
    _atom_site_occupancy
    Mo0      Mo       0.16536    0.08307    0.06542    1.000
    S1       S        0.08212    0.16640    0.99637    1.000
    S2       S        0.08217    0.16663    0.13432    1.000
    Mo3      Mo       0.41545    0.08321    0.06546    1.000
    S4       S        0.33201    0.16632    0.99643    1.000
    S5       S        0.33202    0.16649    0.13444    1.000
    Mo6      Mo       0.66554    0.08332    0.06537    1.000
    S7       S        0.58204    0.16653    0.99640    1.000
    S8       S        0.58225    0.16668    0.13437    1.000
    Mo9      Mo       0.91546    0.08322    0.06536    1.000
    S10      S        0.83220    0.16662    0.99637    1.000
    S11      S        0.83223    0.16663    0.13435    1.000
    Mo12     Mo       0.16539    0.33319    0.06526    1.000
    S13      S        0.08209    0.41669    0.99638    1.000
    S14      S        0.08212    0.41648    0.13433    1.000
    Mo15     Mo       0.41529    0.33308    0.06531    1.000
    S16      S        0.33208    0.41655    0.99631    1.000
    S17      S        0.33196    0.41652    0.13414    1.000
    Mo18     Mo       0.66538    0.33319    0.06531    1.000
    S19      S        0.58205    0.41664    0.99640    1.000
    S20      S        0.58191    0.41624    0.13421    1.000
    Mo21     Mo       0.91542    0.33325    0.06537    1.000
    S22      S        0.83208    0.41665    0.99641    1.000
    S23      S        0.83191    0.41643    0.13439    1.000
    Mo24     Mo       0.16531    0.58326    0.06543    1.000
    S25      S        0.08189    0.66650    0.99646    1.000
    S26      S        0.08195    0.66655    0.13443    1.000
    Mo27     Mo       0.41525    0.58326    0.06529    1.000
    S28      S        0.33196    0.66673    0.99643    1.000
    S29      S        0.33198    0.66654    0.13443    1.000
    Mo30     Mo       0.66532    0.58321    0.06547    1.000
    S31      S        0.58206    0.66652    0.99640    1.000
    S32      S        0.58188    0.66680    0.13418    1.000
    Mo33     Mo       0.91524    0.58319    0.06549    1.000
    S34      S        0.83193    0.66649    0.99652    1.000
    S35      S        0.83187    0.66647    0.13459    1.000
    Mo36     Mo       0.16536    0.83316    0.06543    1.000
    S37      S        0.08194    0.91638    0.99646    1.000
    S38      S        0.08199    0.91639    0.13442    1.000
    Mo39     Mo       0.41544    0.83328    0.06546    1.000
    S40      S        0.33213    0.91657    0.99649    1.000
    S41      S        0.33207    0.91655    0.13444    1.000
    Mo42     Mo       0.66541    0.83332    0.06530    1.000
    S43      S        0.58203    0.91661    0.99639    1.000
    S44      S        0.58227    0.91668    0.13436    1.000
    Mo45     Mo       0.91528    0.83310    0.06548    1.000
    S46      S        0.83214    0.91651    0.99640    1.000
    S47      S        0.83195    0.91654    0.13437    1.000
    H48      H        0.40816    0.52572    0.32704    1.000
    H49      H        0.37278    0.43586    0.26414    1.000
    H50      H        0.40609    0.38981    0.33024    1.000
    C51      C        0.42866    0.46645    0.30294    1.000
    H52      H        0.57921    0.47082    0.26001    1.000
    H53      H        0.58154    0.60629    0.25868    1.000
    C54      C        0.55883    0.52879    0.28531    1.000
    S55      S        0.66406    0.58919    0.34713    1.000
    H56      H        0.63086    0.48505    0.37355    1.000
