# CIF file generated by openbabel 3.1.0, see https://openbabel.org
data_I
_chemical_name_common ''
_cell_length_a 13.105
_cell_length_b 13.105
_cell_length_c 23.0122
_cell_angle_alpha 90
_cell_angle_beta 90
_cell_angle_gamma 120
loop_
    _atom_site_label
    _atom_site_type_symbol
    _atom_site_fract_x
    _atom_site_fract_y
    _atom_site_fract_z
    _atom_site_occupancy
    H0       H        0.46440    0.58264    0.44266    1.000
    H1       H        0.34961    0.46865    0.48385    1.000
    H2       H        0.46508    0.59238    0.51926    1.000
    C3       C        0.44427    0.53179    0.48277    1.000
    H4       H        0.49387    0.41502    0.52633    1.000
    H5       H        0.49344    0.40652    0.44993    1.000
    C6       C        0.51402    0.46670    0.48653    1.000
    S7       S        0.67659    0.56475    0.48163    1.000
    H8       H        0.68808    0.62808    0.53000    1.000
