# CIF file generated by openbabel 3.1.0, see https://openbabel.org
data_I
_chemical_name_common ''
_cell_length_a 13.105
_cell_length_b 13.105
_cell_length_c 23.0122
_cell_angle_alpha 90
_cell_angle_beta 90
_cell_angle_gamma 120
loop_
    _atom_site_label
    _atom_site_type_symbol
    _atom_site_fract_x
    _atom_site_fract_y
    _atom_site_fract_z
    _atom_site_occupancy
    Mo0      Mo       0.15827    0.08444    0.06884    1.000
    S1       S        0.07496    0.16774    0.99986    1.000
    S2       S        0.07495    0.16785    0.13778    1.000
    Mo3      Mo       0.40833    0.08458    0.06886    1.000
    S4       S        0.32476    0.16747    0.99973    1.000
    S5       S        0.32504    0.16810    0.13774    1.000
    Mo6      Mo       0.65834    0.08456    0.06887    1.000
    S7       S        0.57499    0.16782    0.99988    1.000
    S8       S        0.57506    0.16803    0.13787    1.000
    Mo9      Mo       0.90831    0.08448    0.06881    1.000
    S10      S        0.82493    0.16782    0.99986    1.000
    S11      S        0.82506    0.16794    0.13777    1.000
    Mo12     Mo       0.15820    0.33447    0.06875    1.000
    S13      S        0.07493    0.41792    0.99984    1.000
    S14      S        0.07489    0.41776    0.13780    1.000
    Mo15     Mo       0.40797    0.33438    0.06844    1.000
    S16      S        0.32462    0.41784    0.99962    1.000
    S17      S        0.32492    0.41780    0.13760    1.000
    Mo18     Mo       0.65844    0.33456    0.06873    1.000
    S19      S        0.57504    0.41787    0.99965    1.000
    S20      S        0.57438    0.41763    0.13718    1.000
    Mo21     Mo       0.90826    0.33456    0.06877    1.000
    S22      S        0.82502    0.41793    0.99981    1.000
    S23      S        0.82494    0.41773    0.13787    1.000
    Mo24     Mo       0.15824    0.58448    0.06887    1.000
    S25      S        0.07481    0.66773    0.99995    1.000
    S26      S        0.07487    0.66774    0.13789    1.000
    Mo27     Mo       0.40817    0.58448    0.06865    1.000
    S28      S        0.32490    0.66798    0.99985    1.000
    S29      S        0.32497    0.66773    0.13779    1.000
    Mo30     Mo       0.65832    0.58466    0.06866    1.000
    S31      S        0.57499    0.66803    0.99972    1.000
    S32      S        0.57476    0.66795    0.13756    1.000
    Mo33     Mo       0.90813    0.58435    0.06894    1.000
    S34      S        0.82509    0.66785    0.99985    1.000
    S35      S        0.82481    0.66776    0.13787    1.000
    Mo36     Mo       0.15829    0.83443    0.06890    1.000
    S37      S        0.07498    0.91771    0.99993    1.000
    S38      S        0.07497    0.91778    0.13785    1.000
    Mo39     Mo       0.40838    0.83454    0.06890    1.000
    S40      S        0.32507    0.91785    0.99996    1.000
    S41      S        0.32502    0.91788    0.13784    1.000
    Mo42     Mo       0.65836    0.83464    0.06875    1.000
    S43      S        0.57496    0.91795    0.99988    1.000
    S44      S        0.57512    0.91790    0.13784    1.000
    Mo45     Mo       0.90829    0.83441    0.06885    1.000
    S46      S        0.82510    0.91781    0.99984    1.000
    S47      S        0.82496    0.91779    0.13780    1.000
    H48      H        0.47589    0.44049    0.33947    1.000
    H49      H        0.45781    0.53754    0.29233    1.000
    H50      H        0.45192    0.40897    0.26430    1.000
    C51      C        0.49556    0.47977    0.29619    1.000
    H52      H        0.64911    0.59136    0.24275    1.000
    H53      H        0.67266    0.62030    0.31771    1.000
    C54      C        0.62883    0.55020    0.28560    1.000
    S55      S        0.70423    0.46241    0.29339    1.000
    H56      H        0.63791    0.37841    0.25403    1.000
