# CIF file generated by openbabel 3.1.0, see https://openbabel.org
data_I
_chemical_name_common ''
_cell_length_a 13.105
_cell_length_b 13.105
_cell_length_c 23.0122
_cell_angle_alpha 90
_cell_angle_beta 90
_cell_angle_gamma 120
loop_
    _atom_site_label
    _atom_site_type_symbol
    _atom_site_fract_x
    _atom_site_fract_y
    _atom_site_fract_z
    _atom_site_occupancy
    Mo0      Mo       0.16611    0.08382    0.06788    1.000
    S1       S        0.08263    0.16694    0.99891    1.000
    S2       S        0.08304    0.16738    0.13693    1.000
    Mo3      Mo       0.41616    0.08376    0.06776    1.000
    S4       S        0.33255    0.16670    0.99872    1.000
    S5       S        0.33298    0.16734    0.13670    1.000
    Mo6      Mo       0.66617    0.08377    0.06789    1.000
    S7       S        0.58295    0.16711    0.99885    1.000
    S8       S        0.58277    0.16717    0.13677    1.000
    Mo9      Mo       0.91621    0.08381    0.06799    1.000
    S10      S        0.83287    0.16704    0.99898    1.000
    S11      S        0.83281    0.16716    0.13691    1.000
    Mo12     Mo       0.16616    0.33375    0.06774    1.000
    S13      S        0.08278    0.41712    0.99886    1.000
    S14      S        0.08290    0.41694    0.13688    1.000
    Mo15     Mo       0.41623    0.33368    0.06740    1.000
    S16      S        0.33275    0.41703    0.99851    1.000
    S17      S        0.33291    0.41670    0.13622    1.000
    Mo18     Mo       0.66623    0.33379    0.06778    1.000
    S19      S        0.58315    0.41725    0.99869    1.000
    S20      S        0.58262    0.41699    0.13668    1.000
    Mo21     Mo       0.91623    0.33377    0.06788    1.000
    S22      S        0.83297    0.41716    0.99891    1.000
    S23      S        0.83280    0.41703    0.13684    1.000
    Mo24     Mo       0.16600    0.58361    0.06789    1.000
    S25      S        0.08273    0.66708    0.99897    1.000
    S26      S        0.08281    0.66706    0.13691    1.000
    Mo27     Mo       0.41613    0.58360    0.06761    1.000
    S28      S        0.33263    0.66708    0.99886    1.000
    S29      S        0.33289    0.66704    0.13671    1.000
    Mo30     Mo       0.66618    0.58375    0.06779    1.000
    S31      S        0.58298    0.66722    0.99880    1.000
    S32      S        0.58268    0.66694    0.13668    1.000
    Mo33     Mo       0.91613    0.58376    0.06794    1.000
    S34      S        0.83299    0.66724    0.99897    1.000
    S35      S        0.83264    0.66696    0.13692    1.000
    Mo36     Mo       0.16622    0.83377    0.06792    1.000
    S37      S        0.08273    0.91702    0.99903    1.000
    S38      S        0.08294    0.91720    0.13691    1.000
    Mo39     Mo       0.41619    0.83383    0.06781    1.000
    S40      S        0.33279    0.91706    0.99885    1.000
    S41      S        0.33298    0.91723    0.13681    1.000
    Mo42     Mo       0.66618    0.83379    0.06788    1.000
    S43      S        0.58290    0.91711    0.99892    1.000
    S44      S        0.58276    0.91706    0.13686    1.000
    Mo45     Mo       0.91614    0.83375    0.06801    1.000
    S46      S        0.83294    0.91717    0.99904    1.000
    S47      S        0.83278    0.91710    0.13697    1.000
    H48      H        0.51550    0.63640    0.34547    1.000
    H49      H        0.61097    0.60505    0.30409    1.000
    H50      H        0.53239    0.66565    0.26994    1.000
    C51      C        0.52702    0.60429    0.30363    1.000
    H52      H        0.43869    0.44625    0.25003    1.000
    H53      H        0.41887    0.41811    0.32528    1.000
    C54      C        0.42572    0.47935    0.29129    1.000
    S55      S        0.27745    0.46606    0.29056    1.000
    H56      H        0.30360    0.55312    0.25162    1.000
