# CIF file generated by openbabel 3.1.0, see https://openbabel.org
data_I
_chemical_name_common ''
_cell_length_a 13.105
_cell_length_b 13.105
_cell_length_c 23.0122
_cell_angle_alpha 90
_cell_angle_beta 90
_cell_angle_gamma 120
loop_
    _atom_site_label
    _atom_site_type_symbol
    _atom_site_fract_x
    _atom_site_fract_y
    _atom_site_fract_z
    _atom_site_occupancy
    Mo0      Mo       0.16524    0.08269    0.06876    1.000
    S1       S        0.08179    0.16581    0.99971    1.000
    S2       S        0.08213    0.16628    0.13771    1.000
    Mo3      Mo       0.41537    0.08275    0.06884    1.000
    S4       S        0.33185    0.16570    0.99970    1.000
    S5       S        0.33201    0.16633    0.13770    1.000
    Mo6      Mo       0.66540    0.08275    0.06889    1.000
    S7       S        0.58205    0.16602    0.99988    1.000
    S8       S        0.58206    0.16616    0.13784    1.000
    Mo9      Mo       0.91530    0.08269    0.06883    1.000
    S10      S        0.83199    0.16604    0.99987    1.000
    S11      S        0.83217    0.16617    0.13782    1.000
    Mo12     Mo       0.16517    0.33269    0.06853    1.000
    S13      S        0.08184    0.41620    0.99970    1.000
    S14      S        0.08214    0.41600    0.13775    1.000
    Mo15     Mo       0.41522    0.33263    0.06838    1.000
    S16      S        0.33187    0.41610    0.99947    1.000
    S17      S        0.33158    0.41563    0.13715    1.000
    Mo18     Mo       0.66533    0.33270    0.06878    1.000
    S19      S        0.58225    0.41621    0.99971    1.000
    S20      S        0.58156    0.41564    0.13761    1.000
    Mo21     Mo       0.91539    0.33277    0.06880    1.000
    S22      S        0.83204    0.41614    0.99987    1.000
    S23      S        0.83193    0.41598    0.13784    1.000
    Mo24     Mo       0.16521    0.58268    0.06880    1.000
    S25      S        0.08190    0.66614    0.99989    1.000
    S26      S        0.08200    0.66608    0.13784    1.000
    Mo27     Mo       0.41510    0.58260    0.06864    1.000
    S28      S        0.33189    0.66618    0.99980    1.000
    S29      S        0.33189    0.66601    0.13775    1.000
    Mo30     Mo       0.66521    0.58261    0.06889    1.000
    S31      S        0.58206    0.66610    0.99989    1.000
    S32      S        0.58162    0.66590    0.13778    1.000
    Mo33     Mo       0.91526    0.58272    0.06891    1.000
    S34      S        0.83191    0.66602    0.99996    1.000
    S35      S        0.83183    0.66594    0.13795    1.000
    Mo36     Mo       0.16533    0.83276    0.06887    1.000
    S37      S        0.08181    0.91589    0.99989    1.000
    S38      S        0.08200    0.91614    0.13782    1.000
    Mo39     Mo       0.41536    0.83278    0.06883    1.000
    S40      S        0.33203    0.91610    0.99989    1.000
    S41      S        0.33206    0.91613    0.13784    1.000
    Mo42     Mo       0.66526    0.83272    0.06890    1.000
    S43      S        0.58207    0.91609    0.99991    1.000
    S44      S        0.58197    0.91604    0.13788    1.000
    Mo45     Mo       0.91520    0.83265    0.06893    1.000
    S46      S        0.83187    0.91592    0.99992    1.000
    S47      S        0.83193    0.91606    0.13788    1.000
    H48      H        0.59328    0.54941    0.33428    1.000
    H49      H        0.60686    0.44598    0.28985    1.000
    H50      H        0.60092    0.56554    0.25783    1.000
    C51      C        0.56636    0.50135    0.29323    1.000
    H52      H        0.40426    0.37384    0.24947    1.000
    H53      H        0.39709    0.36319    0.32588    1.000
    C54      C        0.43187    0.42505    0.28962    1.000
    S55      S        0.35324    0.51005    0.29541    1.000
    H56      H        0.40791    0.58353    0.25024    1.000
