# CIF file generated by openbabel 3.1.0, see https://openbabel.org
data_I
_chemical_name_common ''
_cell_length_a 13.105
_cell_length_b 13.105
_cell_length_c 23.0122
_cell_angle_alpha 90
_cell_angle_beta 90
_cell_angle_gamma 120
loop_
    _atom_site_label
    _atom_site_type_symbol
    _atom_site_fract_x
    _atom_site_fract_y
    _atom_site_fract_z
    _atom_site_occupancy
    Mo0      Mo       0.16724    0.08584    0.06890    1.000
    S1       S        0.08378    0.16885    0.99985    1.000
    S2       S        0.08403    0.16944    0.13786    1.000
    Mo3      Mo       0.41724    0.08577    0.06874    1.000
    S4       S        0.33361    0.16869    0.99973    1.000
    S5       S        0.33417    0.16946    0.13770    1.000
    Mo6      Mo       0.66728    0.08580    0.06872    1.000
    S7       S        0.58387    0.16899    0.99973    1.000
    S8       S        0.58399    0.16924    0.13763    1.000
    Mo9      Mo       0.91730    0.08579    0.06886    1.000
    S10      S        0.83398    0.16901    0.99981    1.000
    S11      S        0.83395    0.16922    0.13772    1.000
    Mo12     Mo       0.16701    0.33578    0.06857    1.000
    S13      S        0.08382    0.41923    0.99964    1.000
    S14      S        0.08376    0.41898    0.13771    1.000
    Mo15     Mo       0.41736    0.33571    0.06835    1.000
    S16      S        0.33372    0.41896    0.99940    1.000
    S17      S        0.33399    0.41906    0.13693    1.000
    Mo18     Mo       0.66729    0.33578    0.06857    1.000
    S19      S        0.58420    0.41929    0.99954    1.000
    S20      S        0.58387    0.41896    0.13749    1.000
    Mo21     Mo       0.91731    0.33581    0.06866    1.000
    S22      S        0.83401    0.41914    0.99971    1.000
    S23      S        0.83376    0.41884    0.13765    1.000
    Mo24     Mo       0.16710    0.58562    0.06875    1.000
    S25      S        0.08386    0.66924    0.99992    1.000
    S26      S        0.08383    0.66894    0.13783    1.000
    Mo27     Mo       0.41732    0.58584    0.06840    1.000
    S28      S        0.33371    0.66913    0.99968    1.000
    S29      S        0.33403    0.66910    0.13756    1.000
    Mo30     Mo       0.66728    0.58579    0.06865    1.000
    S31      S        0.58416    0.66927    0.99961    1.000
    S32      S        0.58384    0.66914    0.13754    1.000
    Mo33     Mo       0.91719    0.58567    0.06882    1.000
    S34      S        0.83419    0.66927    0.99987    1.000
    S35      S        0.83374    0.66889    0.13779    1.000
    Mo36     Mo       0.16728    0.83579    0.06892    1.000
    S37      S        0.08386    0.91906    0.00002    1.000
    S38      S        0.08391    0.91913    0.13791    1.000
    Mo39     Mo       0.41730    0.83584    0.06868    1.000
    S40      S        0.33380    0.91906    0.99983    1.000
    S41      S        0.33413    0.91919    0.13774    1.000
    Mo42     Mo       0.66728    0.83586    0.06867    1.000
    S43      S        0.58397    0.91921    0.99973    1.000
    S44      S        0.58393    0.91914    0.13766    1.000
    Mo45     Mo       0.91721    0.83576    0.06892    1.000
    S46      S        0.83409    0.91920    0.99988    1.000
    S47      S        0.83376    0.91910    0.13779    1.000
    H48      H        0.50435    0.52152    0.33083    1.000
    H49      H        0.51550    0.41174    0.29067    1.000
    H50      H        0.50240    0.52320    0.25402    1.000
    C51      C        0.47338    0.46583    0.29219    1.000
    H52      H        0.30859    0.32775    0.25524    1.000
    H53      H        0.30971    0.33201    0.33183    1.000
    C54      C        0.33907    0.38656    0.29276    1.000
    S55      S        0.25688    0.46839    0.29500    1.000
    H56      H        0.30750    0.53568    0.24744    1.000
