# CIF file generated by openbabel 3.1.0, see https://openbabel.org
data_I
_chemical_name_common ''
_cell_length_a 13.105
_cell_length_b 13.105
_cell_length_c 23.0122
_cell_angle_alpha 90
_cell_angle_beta 90
_cell_angle_gamma 120
loop_
    _atom_site_label
    _atom_site_type_symbol
    _atom_site_fract_x
    _atom_site_fract_y
    _atom_site_fract_z
    _atom_site_occupancy
    Mo0      Mo       0.16716    0.08258    0.06883    1.000
    S1       S        0.08360    0.16557    0.99980    1.000
    S2       S        0.08402    0.16612    0.13782    1.000
    Mo3      Mo       0.41716    0.08259    0.06886    1.000
    S4       S        0.33368    0.16559    0.99971    1.000
    S5       S        0.33391    0.16621    0.13771    1.000
    Mo6      Mo       0.66720    0.08258    0.06898    1.000
    S7       S        0.58388    0.16585    0.99994    1.000
    S8       S        0.58378    0.16598    0.13788    1.000
    Mo9      Mo       0.91720    0.08258    0.06891    1.000
    S10      S        0.83381    0.16590    0.99997    1.000
    S11      S        0.83391    0.16591    0.13796    1.000
    Mo12     Mo       0.16697    0.33240    0.06860    1.000
    S13      S        0.08357    0.41597    0.99985    1.000
    S14      S        0.08397    0.41575    0.13784    1.000
    Mo15     Mo       0.41717    0.33250    0.06843    1.000
    S16      S        0.33364    0.41587    0.99948    1.000
    S17      S        0.33369    0.41558    0.13708    1.000
    Mo18     Mo       0.66715    0.33254    0.06885    1.000
    S19      S        0.58411    0.41592    0.99967    1.000
    S20      S        0.58355    0.41585    0.13767    1.000
    Mo21     Mo       0.91711    0.33252    0.06895    1.000
    S22      S        0.83386    0.41590    0.99998    1.000
    S23      S        0.83367    0.41575    0.13791    1.000
    Mo24     Mo       0.16707    0.58251    0.06891    1.000
    S25      S        0.08377    0.66588    1.00000    1.000
    S26      S        0.08378    0.66585    0.13796    1.000
    Mo27     Mo       0.41714    0.58254    0.06852    1.000
    S28      S        0.33367    0.66613    0.99988    1.000
    S29      S        0.33386    0.66567    0.13780    1.000
    Mo30     Mo       0.66720    0.58251    0.06869    1.000
    S31      S        0.58399    0.66606    0.99970    1.000
    S32      S        0.58383    0.66568    0.13752    1.000
    Mo33     Mo       0.91712    0.58252    0.06897    1.000
    S34      S        0.83400    0.66595    0.99989    1.000
    S35      S        0.83368    0.66584    0.13788    1.000
    Mo36     Mo       0.16717    0.83255    0.06897    1.000
    S37      S        0.08382    0.91580    0.99994    1.000
    S38      S        0.08388    0.91601    0.13790    1.000
    Mo39     Mo       0.41721    0.83263    0.06896    1.000
    S40      S        0.33381    0.91585    0.99999    1.000
    S41      S        0.33393    0.91604    0.13792    1.000
    Mo42     Mo       0.66720    0.83260    0.06883    1.000
    S43      S        0.58386    0.91602    0.99996    1.000
    S44      S        0.58386    0.91578    0.13795    1.000
    Mo45     Mo       0.91719    0.83255    0.06893    1.000
    S46      S        0.83392    0.91589    0.99996    1.000
    S47      S        0.83379    0.91589    0.13790    1.000
    H48      H        0.47590    0.66441    0.33519    1.000
    H49      H        0.58728    0.67698    0.28680    1.000
    H50      H        0.45933    0.67313    0.25936    1.000
    C51      C        0.49203    0.63756    0.29288    1.000
    H52      H        0.45230    0.47543    0.24752    1.000
    H53      H        0.46098    0.46712    0.32364    1.000
    C54      C        0.43198    0.50294    0.28862    1.000
    S55      S        0.26892    0.42576    0.29711    1.000
    H56      H        0.24803    0.48092    0.25288    1.000
