# CIF file generated by openbabel 3.1.0, see https://openbabel.org
data_I
_chemical_name_common ''
_cell_length_a 13.105
_cell_length_b 13.105
_cell_length_c 23.0122
_cell_angle_alpha 90
_cell_angle_beta 90
_cell_angle_gamma 120
loop_
    _atom_site_label
    _atom_site_type_symbol
    _atom_site_fract_x
    _atom_site_fract_y
    _atom_site_fract_z
    _atom_site_occupancy
    Mo0      Mo       0.16391    0.08033    0.06727    1.000
    S1       S        0.08059    0.16361    0.99823    1.000
    S2       S        0.08059    0.16374    0.13619    1.000
    Mo3      Mo       0.41405    0.08041    0.06737    1.000
    S4       S        0.33060    0.16352    0.99831    1.000
    S5       S        0.33059    0.16378    0.13623    1.000
    Mo6      Mo       0.66393    0.08029    0.06731    1.000
    S7       S        0.58064    0.16371    0.99838    1.000
    S8       S        0.58078    0.16379    0.13632    1.000
    Mo9      Mo       0.91391    0.08033    0.06724    1.000
    S10      S        0.83057    0.16371    0.99836    1.000
    S11      S        0.83060    0.16361    0.13625    1.000
    Mo12     Mo       0.16381    0.33029    0.06712    1.000
    S13      S        0.08052    0.41379    0.99833    1.000
    S14      S        0.08069    0.41363    0.13628    1.000
    Mo15     Mo       0.41394    0.33026    0.06711    1.000
    S16      S        0.33059    0.41368    0.99816    1.000
    S17      S        0.33038    0.41341    0.13586    1.000
    Mo18     Mo       0.66402    0.33038    0.06730    1.000
    S19      S        0.58067    0.41353    0.99819    1.000
    S20      S        0.58058    0.41379    0.13615    1.000
    Mo21     Mo       0.91394    0.33035    0.06733    1.000
    S22      S        0.83071    0.41379    0.99839    1.000
    S23      S        0.83067    0.41374    0.13629    1.000
    Mo24     Mo       0.16396    0.58038    0.06734    1.000
    S25      S        0.08078    0.66383    0.99842    1.000
    S26      S        0.08066    0.66377    0.13634    1.000
    Mo27     Mo       0.41400    0.58039    0.06711    1.000
    S28      S        0.33055    0.66378    0.99833    1.000
    S29      S        0.33074    0.66368    0.13626    1.000
    Mo30     Mo       0.66401    0.58035    0.06704    1.000
    S31      S        0.58066    0.66377    0.99810    1.000
    S32      S        0.58078    0.66364    0.13585    1.000
    Mo33     Mo       0.91400    0.58044    0.06732    1.000
    S34      S        0.83075    0.66369    0.99822    1.000
    S35      S        0.83046    0.66371    0.13620    1.000
    Mo36     Mo       0.16406    0.83045    0.06737    1.000
    S37      S        0.08069    0.91367    0.99836    1.000
    S38      S        0.08050    0.91368    0.13624    1.000
    Mo39     Mo       0.41405    0.83041    0.06736    1.000
    S40      S        0.33074    0.91375    0.99844    1.000
    S41      S        0.33079    0.91379    0.13636    1.000
    Mo42     Mo       0.66397    0.83038    0.06719    1.000
    S43      S        0.58055    0.91371    0.99831    1.000
    S44      S        0.58070    0.91357    0.13631    1.000
    Mo45     Mo       0.91391    0.83033    0.06722    1.000
    S46      S        0.83064    0.91372    0.99823    1.000
    S47      S        0.83057    0.91366    0.13623    1.000
    H48      H        0.31058    0.54428    0.25641    1.000
    H49      H        0.26194    0.40281    0.28652    1.000
    H50      H        0.31148    0.52697    0.33256    1.000
    C51      C        0.32658    0.49673    0.29091    1.000
    H52      H        0.46845    0.46922    0.32187    1.000
    H53      H        0.46731    0.48568    0.24603    1.000
    C54      C        0.45197    0.51635    0.28747    1.000
    S55      S        0.56982    0.67426    0.29070    1.000
    H56      H        0.55291    0.69126    0.34704    1.000
