# CIF file generated by openbabel 3.1.0, see https://openbabel.org
data_I
_chemical_name_common ''
_cell_length_a 13.105
_cell_length_b 13.105
_cell_length_c 23.0122
_cell_angle_alpha 90
_cell_angle_beta 90
_cell_angle_gamma 120
loop_
    _atom_site_label
    _atom_site_type_symbol
    _atom_site_fract_x
    _atom_site_fract_y
    _atom_site_fract_z
    _atom_site_occupancy
    Mo0      Mo       0.16693    0.08090    0.06784    1.000
    S1       S        0.08338    0.16387    0.99875    1.000
    S2       S        0.08371    0.16447    0.13674    1.000
    Mo3      Mo       0.41697    0.08081    0.06783    1.000
    S4       S        0.33348    0.16387    0.99880    1.000
    S5       S        0.33376    0.16441    0.13673    1.000
    Mo6      Mo       0.66688    0.08079    0.06779    1.000
    S7       S        0.58356    0.16408    0.99880    1.000
    S8       S        0.58370    0.16426    0.13676    1.000
    Mo9      Mo       0.91689    0.08086    0.06785    1.000
    S10      S        0.83348    0.16400    0.99878    1.000
    S11      S        0.83365    0.16444    0.13670    1.000
    Mo12     Mo       0.16678    0.33075    0.06746    1.000
    S13      S        0.08357    0.41420    0.99851    1.000
    S14      S        0.08360    0.41425    0.13645    1.000
    Mo15     Mo       0.41703    0.33078    0.06750    1.000
    S16      S        0.33367    0.41421    0.99851    1.000
    S17      S        0.33342    0.41379    0.13615    1.000
    Mo18     Mo       0.66700    0.33086    0.06768    1.000
    S19      S        0.58378    0.41424    0.99867    1.000
    S20      S        0.58357    0.41417    0.13664    1.000
    Mo21     Mo       0.91691    0.33092    0.06755    1.000
    S22      S        0.83356    0.41426    0.99863    1.000
    S23      S        0.83374    0.41429    0.13658    1.000
    Mo24     Mo       0.16701    0.58093    0.06745    1.000
    S25      S        0.08362    0.66447    0.99865    1.000
    S26      S        0.08368    0.66406    0.13663    1.000
    Mo27     Mo       0.41691    0.58093    0.06760    1.000
    S28      S        0.33380    0.66440    0.99860    1.000
    S29      S        0.33329    0.66396    0.13659    1.000
    Mo30     Mo       0.66703    0.58087    0.06765    1.000
    S31      S        0.58379    0.66442    0.99877    1.000
    S32      S        0.58364    0.66400    0.13659    1.000
    Mo33     Mo       0.91699    0.58095    0.06765    1.000
    S34      S        0.83380    0.66456    0.99880    1.000
    S35      S        0.83356    0.66409    0.13675    1.000
    Mo36     Mo       0.16699    0.83089    0.06780    1.000
    S37      S        0.08353    0.91422    0.99894    1.000
    S38      S        0.08367    0.91423    0.13684    1.000
    Mo39     Mo       0.41692    0.83076    0.06783    1.000
    S40      S        0.33370    0.91423    0.99886    1.000
    S41      S        0.33361    0.91412    0.13684    1.000
    Mo42     Mo       0.66694    0.83093    0.06793    1.000
    S43      S        0.58357    0.91408    0.99890    1.000
    S44      S        0.58355    0.91424    0.13691    1.000
    Mo45     Mo       0.91688    0.83097    0.06791    1.000
    S46      S        0.83350    0.91425    0.99894    1.000
    S47      S        0.83356    0.91431    0.13695    1.000
    H48      H        0.26120    0.49106    0.25130    1.000
    H49      H        0.25799    0.37051    0.28809    1.000
    H50      H        0.26408    0.48893    0.32806    1.000
    C51      C        0.29520    0.46625    0.28876    1.000
    H52      H        0.46461    0.50463    0.32516    1.000
    H53      H        0.46172    0.50533    0.24867    1.000
    C54      C        0.43016    0.52850    0.28762    1.000
    S55      S        0.50380    0.69239    0.28418    1.000
    H56      H        0.46282    0.70677    0.33570    1.000
