# CIF file generated by openbabel 3.1.0, see https://openbabel.org
data_I
_chemical_name_common ''
_cell_length_a 13.105
_cell_length_b 13.105
_cell_length_c 23.0122
_cell_angle_alpha 90
_cell_angle_beta 90
_cell_angle_gamma 120
loop_
    _atom_site_label
    _atom_site_type_symbol
    _atom_site_fract_x
    _atom_site_fract_y
    _atom_site_fract_z
    _atom_site_occupancy
    Mo0      Mo       0.16809    0.08535    0.06741    1.000
    S1       S        0.08468    0.16852    0.99839    1.000
    S2       S        0.08480    0.16880    0.13637    1.000
    Mo3      Mo       0.41808    0.08535    0.06750    1.000
    S4       S        0.33469    0.16845    0.99842    1.000
    S5       S        0.33478    0.16885    0.13643    1.000
    Mo6      Mo       0.66802    0.08532    0.06734    1.000
    S7       S        0.58462    0.16863    0.99846    1.000
    S8       S        0.58488    0.16879    0.13634    1.000
    Mo9      Mo       0.91805    0.08538    0.06738    1.000
    S10      S        0.83472    0.16875    0.99845    1.000
    S11      S        0.83464    0.16868    0.13630    1.000
    Mo12     Mo       0.16800    0.33527    0.06719    1.000
    S13      S        0.08470    0.41876    0.99840    1.000
    S14      S        0.08467    0.41849    0.13637    1.000
    Mo15     Mo       0.41821    0.33526    0.06720    1.000
    S16      S        0.33480    0.41866    0.99820    1.000
    S17      S        0.33478    0.41838    0.13587    1.000
    Mo18     Mo       0.66811    0.33540    0.06731    1.000
    S19      S        0.58489    0.41877    0.99832    1.000
    S20      S        0.58476    0.41851    0.13628    1.000
    Mo21     Mo       0.91806    0.33541    0.06738    1.000
    S22      S        0.83481    0.41878    0.99842    1.000
    S23      S        0.83468    0.41872    0.13637    1.000
    Mo24     Mo       0.16807    0.58529    0.06745    1.000
    S25      S        0.08475    0.66875    0.99854    1.000
    S26      S        0.08475    0.66867    0.13641    1.000
    Mo27     Mo       0.41827    0.58540    0.06733    1.000
    S28      S        0.33466    0.66860    0.99845    1.000
    S29      S        0.33491    0.66874    0.13635    1.000
    Mo30     Mo       0.66794    0.58535    0.06742    1.000
    S31      S        0.58472    0.66854    0.99829    1.000
    S32      S        0.58482    0.66893    0.13633    1.000
    Mo33     Mo       0.91804    0.58538    0.06744    1.000
    S34      S        0.83475    0.66871    0.99849    1.000
    S35      S        0.83460    0.66872    0.13639    1.000
    Mo36     Mo       0.16815    0.83539    0.06747    1.000
    S37      S        0.08474    0.91858    0.99848    1.000
    S38      S        0.08469    0.91870    0.13634    1.000
    Mo39     Mo       0.41808    0.83533    0.06739    1.000
    S40      S        0.33482    0.91874    0.99852    1.000
    S41      S        0.33481    0.91864    0.13644    1.000
    Mo42     Mo       0.66799    0.83522    0.06721    1.000
    S43      S        0.58458    0.91860    0.99837    1.000
    S44      S        0.58478    0.91859    0.13628    1.000
    Mo45     Mo       0.91802    0.83538    0.06739    1.000
    S46      S        0.83477    0.91878    0.99837    1.000
    S47      S        0.83455    0.91860    0.13630    1.000
    H48      H        0.29099    0.52166    0.24625    1.000
    H49      H        0.17493    0.41922    0.29119    1.000
    H50      H        0.29754    0.54382    0.32222    1.000
    C51      C        0.27056    0.47698    0.28824    1.000
    H52      H        0.31755    0.36520    0.33848    1.000
    H53      H        0.30092    0.33366    0.26351    1.000
    C54      C        0.33261    0.40479    0.29540    1.000
    S55      S        0.49458    0.48983    0.28219    1.000
    H56      H        0.52135    0.56666    0.32664    1.000
