# CIF file generated by openbabel 3.1.0, see https://openbabel.org
data_I
_chemical_name_common ''
_cell_length_a 13.105
_cell_length_b 13.105
_cell_length_c 23.0122
_cell_angle_alpha 90
_cell_angle_beta 90
_cell_angle_gamma 120
loop_
    _atom_site_label
    _atom_site_type_symbol
    _atom_site_fract_x
    _atom_site_fract_y
    _atom_site_fract_z
    _atom_site_occupancy
    Mo0      Mo       0.16430    0.08042    0.06739    1.000
    S1       S        0.08086    0.16364    0.99845    1.000
    S2       S        0.08103    0.16382    0.13645    1.000
    Mo3      Mo       0.41425    0.08038    0.06727    1.000
    S4       S        0.33081    0.16357    0.99830    1.000
    S5       S        0.33099    0.16355    0.13630    1.000
    Mo6      Mo       0.66431    0.08043    0.06729    1.000
    S7       S        0.58101    0.16381    0.99835    1.000
    S8       S        0.58092    0.16369    0.13629    1.000
    Mo9      Mo       0.91432    0.08042    0.06744    1.000
    S10      S        0.83114    0.16392    0.99848    1.000
    S11      S        0.83083    0.16365    0.13638    1.000
    Mo12     Mo       0.16401    0.33026    0.06730    1.000
    S13      S        0.08079    0.41374    0.99847    1.000
    S14      S        0.08106    0.41377    0.13644    1.000
    Mo15     Mo       0.41420    0.33011    0.06731    1.000
    S16      S        0.33069    0.41338    0.99823    1.000
    S17      S        0.33083    0.41382    0.13587    1.000
    Mo18     Mo       0.66428    0.33038    0.06734    1.000
    S19      S        0.58087    0.41353    0.99832    1.000
    S20      S        0.58069    0.41340    0.13627    1.000
    Mo21     Mo       0.91429    0.33046    0.06751    1.000
    S22      S        0.83107    0.41384    0.99852    1.000
    S23      S        0.83082    0.41376    0.13644    1.000
    Mo24     Mo       0.16425    0.58038    0.06741    1.000
    S25      S        0.08084    0.66372    0.99850    1.000
    S26      S        0.08097    0.66377    0.13639    1.000
    Mo27     Mo       0.41422    0.58040    0.06704    1.000
    S28      S        0.33076    0.66371    0.99828    1.000
    S29      S        0.33112    0.66367    0.13626    1.000
    Mo30     Mo       0.66407    0.58018    0.06731    1.000
    S31      S        0.58103    0.66370    0.99820    1.000
    S32      S        0.58072    0.66381    0.13612    1.000
    Mo33     Mo       0.91420    0.58041    0.06748    1.000
    S34      S        0.83084    0.66363    0.99847    1.000
    S35      S        0.83063    0.66361    0.13641    1.000
    Mo36     Mo       0.16423    0.83038    0.06742    1.000
    S37      S        0.08088    0.91369    0.99849    1.000
    S38      S        0.08092    0.91376    0.13638    1.000
    Mo39     Mo       0.41428    0.83037    0.06728    1.000
    S40      S        0.33079    0.91364    0.99840    1.000
    S41      S        0.33104    0.91377    0.13628    1.000
    Mo42     Mo       0.66430    0.83046    0.06719    1.000
    S43      S        0.58095    0.91381    0.99828    1.000
    S44      S        0.58099    0.91372    0.13619    1.000
    Mo45     Mo       0.91417    0.83033    0.06742    1.000
    S46      S        0.83114    0.91385    0.99841    1.000
    S47      S        0.83076    0.91363    0.13632    1.000
    H48      H        0.60801    0.53766    0.25250    1.000
    H49      H        0.61400    0.64797    0.29933    1.000
    H50      H        0.60183    0.51738    0.32866    1.000
    C51      C        0.57395    0.55276    0.29293    1.000
    H52      H        0.40505    0.51131    0.33116    1.000
    H53      H        0.41134    0.52998    0.25520    1.000
    C54      C        0.43939    0.49531    0.29115    1.000
    S55      S        0.36075    0.33342    0.27773    1.000
    H56      H        0.39753    0.30434    0.32670    1.000
