# CIF file generated by openbabel 3.1.0, see https://openbabel.org
data_I
_chemical_name_common ''
_cell_length_a 13.105
_cell_length_b 13.105
_cell_length_c 23.0122
_cell_angle_alpha 90
_cell_angle_beta 90
_cell_angle_gamma 120
loop_
    _atom_site_label
    _atom_site_type_symbol
    _atom_site_fract_x
    _atom_site_fract_y
    _atom_site_fract_z
    _atom_site_occupancy
    Mo0      Mo       0.16623    0.08373    0.06794    1.000
    S1       S        0.08284    0.16698    0.99898    1.000
    S2       S        0.08257    0.16670    0.13698    1.000
    Mo3      Mo       0.41626    0.08372    0.06764    1.000
    S4       S        0.33273    0.16697    0.99874    1.000
    S5       S        0.33293    0.16673    0.13662    1.000
    Mo6      Mo       0.66624    0.08367    0.06780    1.000
    S7       S        0.58308    0.16714    0.99878    1.000
    S8       S        0.58289    0.16700    0.13671    1.000
    Mo9      Mo       0.91619    0.08361    0.06789    1.000
    S10      S        0.83300    0.16709    0.99897    1.000
    S11      S        0.83275    0.16684    0.13689    1.000
    Mo12     Mo       0.16601    0.33344    0.06806    1.000
    S13      S        0.08285    0.41688    0.99911    1.000
    S14      S        0.08285    0.41682    0.13708    1.000
    Mo15     Mo       0.41618    0.33355    0.06781    1.000
    S16      S        0.33262    0.41686    0.99895    1.000
    S17      S        0.33294    0.41717    0.13674    1.000
    Mo18     Mo       0.66641    0.33373    0.06781    1.000
    S19      S        0.58303    0.41710    0.99884    1.000
    S20      S        0.58328    0.41733    0.13661    1.000
    Mo21     Mo       0.91626    0.33365    0.06804    1.000
    S22      S        0.83321    0.41714    0.99902    1.000
    S23      S        0.83283    0.41697    0.13696    1.000
    Mo24     Mo       0.16625    0.58356    0.06806    1.000
    S25      S        0.08302    0.66700    0.99910    1.000
    S26      S        0.08304    0.66707    0.13699    1.000
    Mo27     Mo       0.41625    0.58372    0.06780    1.000
    S28      S        0.33273    0.66693    0.99897    1.000
    S29      S        0.33307    0.66700    0.13691    1.000
    Mo30     Mo       0.66641    0.58390    0.06777    1.000
    S31      S        0.58293    0.66707    0.99886    1.000
    S32      S        0.58287    0.66693    0.13682    1.000
    Mo33     Mo       0.91634    0.58372    0.06802    1.000
    S34      S        0.83322    0.66717    0.99898    1.000
    S35      S        0.83289    0.66704    0.13691    1.000
    Mo36     Mo       0.16632    0.83375    0.06801    1.000
    S37      S        0.08294    0.91701    0.99905    1.000
    S38      S        0.08304    0.91718    0.13700    1.000
    Mo39     Mo       0.41622    0.83364    0.06789    1.000
    S40      S        0.33277    0.91680    0.99891    1.000
    S41      S        0.33315    0.91731    0.13685    1.000
    Mo42     Mo       0.66622    0.83365    0.06788    1.000
    S43      S        0.58287    0.91695    0.99891    1.000
    S44      S        0.58291    0.91706    0.13680    1.000
    Mo45     Mo       0.91632    0.83374    0.06799    1.000
    S46      S        0.83295    0.91697    0.99897    1.000
    S47      S        0.83283    0.91699    0.13689    1.000
    H48      H        0.47886    0.23945    0.24836    1.000
    H49      H        0.59525    0.34926    0.29045    1.000
    H50      H        0.47132    0.23198    0.32504    1.000
    C51      C        0.49949    0.29206    0.28794    1.000
    H52      H        0.45947    0.41866    0.32816    1.000
    H53      H        0.46830    0.42793    0.25177    1.000
    C54      C        0.43935    0.36679    0.28841    1.000
    S55      S        0.27606    0.28033    0.27998    1.000
    H56      H        0.25485    0.21372    0.32822    1.000
