# CIF file generated by openbabel 3.1.0, see https://openbabel.org
data_I
_chemical_name_common ''
_cell_length_a 13.105
_cell_length_b 13.105
_cell_length_c 23.0122
_cell_angle_alpha 90
_cell_angle_beta 90
_cell_angle_gamma 120
loop_
    _atom_site_label
    _atom_site_type_symbol
    _atom_site_fract_x
    _atom_site_fract_y
    _atom_site_fract_z
    _atom_site_occupancy
    Mo0      Mo       0.16401    0.07443    0.06707    1.000
    S1       S        0.08049    0.15746    0.99806    1.000
    S2       S        0.08067    0.15777    0.13602    1.000
    Mo3      Mo       0.41402    0.07442    0.06703    1.000
    S4       S        0.33050    0.15746    0.99796    1.000
    S5       S        0.33086    0.15806    0.13596    1.000
    Mo6      Mo       0.66396    0.07422    0.06700    1.000
    S7       S        0.58056    0.15737    0.99798    1.000
    S8       S        0.58083    0.15778    0.13592    1.000
    Mo9      Mo       0.91392    0.07421    0.06706    1.000
    S10      S        0.83068    0.15766    0.99809    1.000
    S11      S        0.83061    0.15763    0.13599    1.000
    Mo12     Mo       0.16382    0.32426    0.06688    1.000
    S13      S        0.08061    0.40779    0.99803    1.000
    S14      S        0.08076    0.40775    0.13596    1.000
    Mo15     Mo       0.41390    0.32428    0.06668    1.000
    S16      S        0.33030    0.40749    0.99775    1.000
    S17      S        0.33064    0.40776    0.13559    1.000
    Mo18     Mo       0.66409    0.32420    0.06676    1.000
    S19      S        0.58063    0.40735    0.99767    1.000
    S20      S        0.58065    0.40747    0.13548    1.000
    Mo21     Mo       0.91401    0.32439    0.06701    1.000
    S22      S        0.83091    0.40780    0.99796    1.000
    S23      S        0.83056    0.40774    0.13589    1.000
    Mo24     Mo       0.16410    0.57448    0.06700    1.000
    S25      S        0.08078    0.65792    0.99811    1.000
    S26      S        0.08061    0.65768    0.13602    1.000
    Mo27     Mo       0.41382    0.57434    0.06661    1.000
    S28      S        0.33057    0.65793    0.99791    1.000
    S29      S        0.33085    0.65758    0.13598    1.000
    Mo30     Mo       0.66397    0.57422    0.06650    1.000
    S31      S        0.58061    0.65776    0.99758    1.000
    S32      S        0.58054    0.65746    0.13516    1.000
    Mo33     Mo       0.91397    0.57443    0.06696    1.000
    S34      S        0.83095    0.65789    0.99787    1.000
    S35      S        0.83015    0.65743    0.13590    1.000
    Mo36     Mo       0.16400    0.82444    0.06714    1.000
    S37      S        0.08068    0.90774    0.99818    1.000
    S38      S        0.08052    0.90775    0.13605    1.000
    Mo39     Mo       0.41405    0.82433    0.06706    1.000
    S40      S        0.33059    0.90767    0.99816    1.000
    S41      S        0.33083    0.90781    0.13605    1.000
    Mo42     Mo       0.66404    0.82436    0.06680    1.000
    S43      S        0.58058    0.90772    0.99800    1.000
    S44      S        0.58080    0.90751    0.13600    1.000
    Mo45     Mo       0.91385    0.82429    0.06704    1.000
    S46      S        0.83083    0.90776    0.99800    1.000
    S47      S        0.83036    0.90737    0.13603    1.000
    H48      H        0.35824    0.46535    0.26755    1.000
    H49      H        0.39401    0.36019    0.29440    1.000
    H50      H        0.39035    0.46438    0.34214    1.000
    C51      C        0.41378    0.45162    0.29825    1.000
    H52      H        0.60100    0.52405    0.31663    1.000
    H53      H        0.56833    0.52187    0.24238    1.000
    C54      C        0.54459    0.53607    0.28587    1.000
    S55      S        0.58720    0.69475    0.28569    1.000
    H56      H        0.56674    0.70142    0.34281    1.000
