# CIF file generated by openbabel 3.1.0, see https://openbabel.org
data_I
_chemical_name_common ''
_cell_length_a 13.105
_cell_length_b 13.105
_cell_length_c 23.0122
_cell_angle_alpha 90
_cell_angle_beta 90
_cell_angle_gamma 120
loop_
    _atom_site_label
    _atom_site_type_symbol
    _atom_site_fract_x
    _atom_site_fract_y
    _atom_site_fract_z
    _atom_site_occupancy
    Mo0      Mo       0.16576    0.08448    0.06984    1.000
    S1       S        0.08237    0.16771    0.00086    1.000
    S2       S        0.08250    0.16797    0.13874    1.000
    Mo3      Mo       0.41578    0.08445    0.06978    1.000
    S4       S        0.33229    0.16762    0.00080    1.000
    S5       S        0.33255    0.16792    0.13875    1.000
    Mo6      Mo       0.66579    0.08438    0.06975    1.000
    S7       S        0.58232    0.16744    0.00070    1.000
    S8       S        0.58260    0.16792    0.13862    1.000
    Mo9      Mo       0.91573    0.08447    0.06984    1.000
    S10      S        0.83248    0.16770    0.00079    1.000
    S11      S        0.83240    0.16782    0.13877    1.000
    Mo12     Mo       0.16576    0.33448    0.06966    1.000
    S13      S        0.08248    0.41785    0.00078    1.000
    S14      S        0.08251    0.41782    0.13871    1.000
    Mo15     Mo       0.41579    0.33437    0.06959    1.000
    S16      S        0.33256    0.41802    0.00077    1.000
    S17      S        0.33238    0.41755    0.13857    1.000
    Mo18     Mo       0.66590    0.33430    0.06942    1.000
    S19      S        0.58239    0.41773    0.00052    1.000
    S20      S        0.58276    0.41748    0.13821    1.000
    Mo21     Mo       0.91580    0.33442    0.06973    1.000
    S22      S        0.83273    0.41786    0.00068    1.000
    S23      S        0.83233    0.41768    0.13857    1.000
    Mo24     Mo       0.16577    0.58450    0.06972    1.000
    S25      S        0.08252    0.66794    0.00081    1.000
    S26      S        0.08237    0.66775    0.13874    1.000
    Mo27     Mo       0.41591    0.58459    0.06992    1.000
    S28      S        0.33254    0.66785    0.00090    1.000
    S29      S        0.33225    0.66784    0.13877    1.000
    Mo30     Mo       0.66576    0.58448    0.06952    1.000
    S31      S        0.58224    0.66776    0.00069    1.000
    S32      S        0.58268    0.66777    0.13867    1.000
    Mo33     Mo       0.91577    0.58447    0.06971    1.000
    S34      S        0.83258    0.66798    0.00075    1.000
    S35      S        0.83224    0.66765    0.13870    1.000
    Mo36     Mo       0.16576    0.83450    0.06984    1.000
    S37      S        0.08242    0.91785    0.00089    1.000
    S38      S        0.08239    0.91781    0.13881    1.000
    Mo39     Mo       0.41576    0.83447    0.06987    1.000
    S40      S        0.33240    0.91774    0.00089    1.000
    S41      S        0.33244    0.91786    0.13881    1.000
    Mo42     Mo       0.66568    0.83432    0.06973    1.000
    S43      S        0.58232    0.91767    0.00086    1.000
    S44      S        0.58248    0.91775    0.13879    1.000
    Mo45     Mo       0.91574    0.83448    0.06982    1.000
    S46      S        0.83244    0.91782    0.00089    1.000
    S47      S        0.83227    0.91769    0.13876    1.000
    H48      H        0.58538    0.52532    0.25686    1.000
    H49      H        0.55982    0.42702    0.31523    1.000
    H50      H        0.44680    0.39563    0.26420    1.000
    C51      C        0.51983    0.46650    0.28825    1.000
    H52      H        0.41353    0.47647    0.35868    1.000
    H53      H        0.55071    0.60591    0.34929    1.000
    C54      C        0.47720    0.53376    0.32629    1.000
    S55      S        0.41050    0.60806    0.28468    1.000
    H56      H        0.31900    0.50888    0.26244    1.000
