# CIF file generated by openbabel 3.1.0, see https://openbabel.org
data_I
_chemical_name_common ''
_cell_length_a 13.105
_cell_length_b 13.105
_cell_length_c 23.0122
_cell_angle_alpha 90
_cell_angle_beta 90
_cell_angle_gamma 120
loop_
    _atom_site_label
    _atom_site_type_symbol
    _atom_site_fract_x
    _atom_site_fract_y
    _atom_site_fract_z
    _atom_site_occupancy
    Mo0      Mo       0.16654    0.08378    0.06673    1.000
    S1       S        0.08324    0.16704    0.99771    1.000
    S2       S        0.08320    0.16710    0.13567    1.000
    Mo3      Mo       0.41658    0.08380    0.06672    1.000
    S4       S        0.33320    0.16707    0.99779    1.000
    S5       S        0.33329    0.16721    0.13570    1.000
    Mo6      Mo       0.66645    0.08373    0.06665    1.000
    S7       S        0.58318    0.16707    0.99770    1.000
    S8       S        0.58328    0.16714    0.13564    1.000
    Mo9      Mo       0.91657    0.08376    0.06666    1.000
    S10      S        0.83322    0.16713    0.99774    1.000
    S11      S        0.83318    0.16709    0.13556    1.000
    Mo12     Mo       0.16643    0.33370    0.06664    1.000
    S13      S        0.08318    0.41712    0.99773    1.000
    S14      S        0.08319    0.41704    0.13569    1.000
    Mo15     Mo       0.41651    0.33380    0.06669    1.000
    S16      S        0.33314    0.41709    0.99769    1.000
    S17      S        0.33291    0.41698    0.13561    1.000
    Mo18     Mo       0.66660    0.33375    0.06661    1.000
    S19      S        0.58313    0.41704    0.99767    1.000
    S20      S        0.58338    0.41706    0.13555    1.000
    Mo21     Mo       0.91657    0.33384    0.06668    1.000
    S22      S        0.83329    0.41721    0.99770    1.000
    S23      S        0.83322    0.41714    0.13564    1.000
    Mo24     Mo       0.16654    0.58372    0.06675    1.000
    S25      S        0.08324    0.66712    0.99780    1.000
    S26      S        0.08316    0.66703    0.13569    1.000
    Mo27     Mo       0.41647    0.58376    0.06667    1.000
    S28      S        0.33310    0.66704    0.99775    1.000
    S29      S        0.33322    0.66701    0.13573    1.000
    Mo30     Mo       0.66651    0.58378    0.06661    1.000
    S31      S        0.58314    0.66709    0.99762    1.000
    S32      S        0.58340    0.66753    0.13541    1.000
    Mo33     Mo       0.91652    0.58380    0.06671    1.000
    S34      S        0.83324    0.66714    0.99773    1.000
    S35      S        0.83303    0.66708    0.13566    1.000
    Mo36     Mo       0.16648    0.83376    0.06676    1.000
    S37      S        0.08316    0.91708    0.99780    1.000
    S38      S        0.08305    0.91710    0.13567    1.000
    Mo39     Mo       0.41644    0.83368    0.06670    1.000
    S40      S        0.33311    0.91710    0.99779    1.000
    S41      S        0.33323    0.91711    0.13567    1.000
    Mo42     Mo       0.66653    0.83394    0.06651    1.000
    S43      S        0.58298    0.91710    0.99765    1.000
    S44      S        0.58314    0.91706    0.13560    1.000
    Mo45     Mo       0.91642    0.83378    0.06669    1.000
    S46      S        0.83325    0.91720    0.99765    1.000
    S47      S        0.83305    0.91710    0.13561    1.000
    H48      H        0.51161    0.57300    0.25749    1.000
    H49      H        0.59605    0.50601    0.27631    1.000
    H50      H        0.44371    0.41785    0.26134    1.000
    C51      C        0.51016    0.50023    0.28138    1.000
    H52      H        0.48355    0.43379    0.37036    1.000
    H53      H        0.54759    0.58793    0.36550    1.000
    C54      C        0.48288    0.50458    0.34578    1.000
    S55      S        0.33947    0.49828    0.35851    1.000
    H56      H        0.27071    0.38939    0.33613    1.000
