# CIF file generated by openbabel 3.1.0, see https://openbabel.org
data_I
_chemical_name_common ''
_cell_length_a 13.105
_cell_length_b 13.105
_cell_length_c 23.0122
_cell_angle_alpha 90
_cell_angle_beta 90
_cell_angle_gamma 120
loop_
    _atom_site_label
    _atom_site_type_symbol
    _atom_site_fract_x
    _atom_site_fract_y
    _atom_site_fract_z
    _atom_site_occupancy
    Mo0      Mo       0.16961    0.08417    0.06838    1.000
    S1       S        0.08610    0.16755    0.99962    1.000
    S2       S        0.08662    0.16763    0.13758    1.000
    Mo3      Mo       0.41965    0.08412    0.06831    1.000
    S4       S        0.33622    0.16742    0.99929    1.000
    S5       S        0.33628    0.16737    0.13715    1.000
    Mo6      Mo       0.66961    0.08416    0.06865    1.000
    S7       S        0.58650    0.16748    0.99949    1.000
    S8       S        0.58611    0.16758    0.13743    1.000
    Mo9      Mo       0.91959    0.08420    0.06872    1.000
    S10      S        0.83635    0.16756    0.99977    1.000
    S11      S        0.83620    0.16746    0.13769    1.000
    Mo12     Mo       0.16986    0.33427    0.06849    1.000
    S13      S        0.08633    0.41765    0.99978    1.000
    S14      S        0.08653    0.41748    0.13774    1.000
    Mo15     Mo       0.41961    0.33419    0.06823    1.000
    S16      S        0.33629    0.41767    0.99935    1.000
    S17      S        0.33647    0.41721    0.13719    1.000
    Mo18     Mo       0.66970    0.33420    0.06842    1.000
    S19      S        0.58651    0.41772    0.99941    1.000
    S20      S        0.58631    0.41753    0.13729    1.000
    Mo21     Mo       0.91967    0.33418    0.06874    1.000
    S22      S        0.83654    0.41759    0.99965    1.000
    S23      S        0.83614    0.41752    0.13758    1.000
    Mo24     Mo       0.16970    0.58421    0.06879    1.000
    S25      S        0.08635    0.66742    0.99973    1.000
    S26      S        0.08632    0.66769    0.13763    1.000
    Mo27     Mo       0.41956    0.58398    0.06865    1.000
    S28      S        0.33622    0.66739    0.99978    1.000
    S29      S        0.33634    0.66737    0.13779    1.000
    Mo30     Mo       0.66964    0.58428    0.06852    1.000
    S31      S        0.58622    0.66763    0.99971    1.000
    S32      S        0.58619    0.66730    0.13770    1.000
    Mo33     Mo       0.91966    0.58422    0.06864    1.000
    S34      S        0.83636    0.66759    0.99964    1.000
    S35      S        0.83623    0.66752    0.13756    1.000
    Mo36     Mo       0.16962    0.83421    0.06856    1.000
    S37      S        0.08615    0.91740    0.99954    1.000
    S38      S        0.08643    0.91771    0.13748    1.000
    Mo39     Mo       0.41958    0.83408    0.06869    1.000
    S40      S        0.33624    0.91724    0.99955    1.000
    S41      S        0.33629    0.91771    0.13748    1.000
    Mo42     Mo       0.66955    0.83415    0.06874    1.000
    S43      S        0.58624    0.91741    0.99975    1.000
    S44      S        0.58623    0.91753    0.13768    1.000
    Mo45     Mo       0.91962    0.83423    0.06862    1.000
    S46      S        0.83617    0.91755    0.99976    1.000
    S47      S        0.83628    0.91750    0.13768    1.000
    H48      H        0.47819    0.35201    0.25757    1.000
    H49      H        0.45791    0.25403    0.31529    1.000
    H50      H        0.33756    0.22826    0.27055    1.000
    C51      C        0.41727    0.29701    0.29153    1.000
    H52      H        0.32926    0.31641    0.36773    1.000
    H53      H        0.46840    0.44017    0.35341    1.000
    C54      C        0.38856    0.37045    0.33315    1.000
    S55      S        0.32289    0.45154    0.29706    1.000
    H56      H        0.22702    0.35548    0.27530    1.000
