# CIF file generated by openbabel 3.1.0, see https://openbabel.org
data_I
_chemical_name_common ''
_cell_length_a 13.105
_cell_length_b 13.105
_cell_length_c 23.0122
_cell_angle_alpha 90
_cell_angle_beta 90
_cell_angle_gamma 120
loop_
    _atom_site_label
    _atom_site_type_symbol
    _atom_site_fract_x
    _atom_site_fract_y
    _atom_site_fract_z
    _atom_site_occupancy
    Mo0      Mo       0.16880    0.08658    0.06901    1.000
    S1       S        0.08537    0.17002    0.00022    1.000
    S2       S        0.08570    0.16985    0.13821    1.000
    Mo3      Mo       0.41891    0.08654    0.06900    1.000
    S4       S        0.33570    0.17022    0.00011    1.000
    S5       S        0.33531    0.16938    0.13783    1.000
    Mo6      Mo       0.66882    0.08656    0.06937    1.000
    S7       S        0.58578    0.16999    0.00022    1.000
    S8       S        0.58527    0.16986    0.13821    1.000
    Mo9      Mo       0.91887    0.08657    0.06937    1.000
    S10      S        0.83552    0.16993    0.00048    1.000
    S11      S        0.83546    0.16980    0.13837    1.000
    Mo12     Mo       0.16874    0.33656    0.06924    1.000
    S13      S        0.08547    0.42012    0.00047    1.000
    S14      S        0.08557    0.41986    0.13842    1.000
    Mo15     Mo       0.41907    0.33664    0.06938    1.000
    S16      S        0.33575    0.42021    0.00049    1.000
    S17      S        0.33506    0.41949    0.13826    1.000
    Mo18     Mo       0.66888    0.33659    0.06921    1.000
    S19      S        0.58568    0.42022    0.00043    1.000
    S20      S        0.58558    0.41938    0.13841    1.000
    Mo21     Mo       0.91886    0.33660    0.06947    1.000
    S22      S        0.83579    0.42013    0.00047    1.000
    S23      S        0.83537    0.41984    0.13842    1.000
    Mo24     Mo       0.16888    0.58664    0.06952    1.000
    S25      S        0.08542    0.66977    0.00048    1.000
    S26      S        0.08568    0.67025    0.13838    1.000
    Mo27     Mo       0.41893    0.58666    0.06965    1.000
    S28      S        0.33558    0.66979    0.00060    1.000
    S29      S        0.33552    0.67005    0.13857    1.000
    Mo30     Mo       0.66873    0.58640    0.06976    1.000
    S31      S        0.58553    0.66978    0.00069    1.000
    S32      S        0.58571    0.67029    0.13864    1.000
    Mo33     Mo       0.91885    0.58663    0.06954    1.000
    S34      S        0.83522    0.66969    0.00066    1.000
    S35      S        0.83560    0.66997    0.13863    1.000
    Mo36     Mo       0.16889    0.83665    0.06922    1.000
    S37      S        0.08525    0.91967    0.00023    1.000
    S38      S        0.08579    0.92019    0.13815    1.000
    Mo39     Mo       0.41886    0.83659    0.06941    1.000
    S40      S        0.33552    0.91967    0.00021    1.000
    S41      S        0.33553    0.92020    0.13815    1.000
    Mo42     Mo       0.66889    0.83665    0.06944    1.000
    S43      S        0.58553    0.91986    0.00045    1.000
    S44      S        0.58549    0.91998    0.13840    1.000
    Mo45     Mo       0.91880    0.83653    0.06943    1.000
    S46      S        0.83545    0.91984    0.00045    1.000
    S47      S        0.83561    0.92000    0.13840    1.000
    H48      H        0.43287    0.26050    0.26074    1.000
    H49      H        0.33330    0.19337    0.31925    1.000
    H50      H        0.30546    0.27394    0.26610    1.000
    C51      C        0.37490    0.27112    0.29116    1.000
    H52      H        0.38680    0.39210    0.35947    1.000
    H53      H        0.51426    0.38026    0.35208    1.000
    C54      C        0.44371    0.38259    0.32802    1.000
    S55      S        0.52168    0.52154    0.28507    1.000
    H56      H        0.42418    0.51476    0.26118    1.000
