# CIF file generated by openbabel 3.1.0, see https://openbabel.org
data_I
_chemical_name_common ''
_cell_length_a 13.105
_cell_length_b 13.105
_cell_length_c 23.0122
_cell_angle_alpha 90
_cell_angle_beta 90
_cell_angle_gamma 120
loop_
    _atom_site_label
    _atom_site_type_symbol
    _atom_site_fract_x
    _atom_site_fract_y
    _atom_site_fract_z
    _atom_site_occupancy
    Mo0      Mo       0.16655    0.08312    0.06732    1.000
    S1       S        0.08318    0.16636    0.99838    1.000
    S2       S        0.08329    0.16657    0.13624    1.000
    Mo3      Mo       0.41665    0.08327    0.06726    1.000
    S4       S        0.33325    0.16659    0.99838    1.000
    S5       S        0.33324    0.16647    0.13627    1.000
    Mo6      Mo       0.66661    0.08327    0.06732    1.000
    S7       S        0.58339    0.16674    0.99840    1.000
    S8       S        0.58332    0.16664    0.13625    1.000
    Mo9      Mo       0.91654    0.08321    0.06735    1.000
    S10      S        0.83323    0.16649    0.99835    1.000
    S11      S        0.83335    0.16677    0.13624    1.000
    Mo12     Mo       0.16654    0.33317    0.06723    1.000
    S13      S        0.08313    0.41622    0.99808    1.000
    S14      S        0.08348    0.41694    0.13600    1.000
    Mo15     Mo       0.41650    0.33325    0.06735    1.000
    S16      S        0.33315    0.41642    0.99831    1.000
    S17      S        0.33315    0.41685    0.13628    1.000
    Mo18     Mo       0.66661    0.33340    0.06732    1.000
    S19      S        0.58309    0.41656    0.99839    1.000
    S20      S        0.58316    0.41673    0.13630    1.000
    Mo21     Mo       0.91659    0.33331    0.06716    1.000
    S22      S        0.83314    0.41664    0.99828    1.000
    S23      S        0.83345    0.41678    0.13616    1.000
    Mo24     Mo       0.16675    0.58337    0.06672    1.000
    S25      S        0.08302    0.66671    0.99806    1.000
    S26      S        0.08346    0.66651    0.13596    1.000
    Mo27     Mo       0.41618    0.58341    0.06710    1.000
    S28      S        0.33332    0.66664    0.99774    1.000
    S29      S        0.33267    0.66650    0.13578    1.000
    Mo30     Mo       0.66635    0.58330    0.06722    1.000
    S31      S        0.58305    0.66666    0.99821    1.000
    S32      S        0.58281    0.66654    0.13603    1.000
    Mo33     Mo       0.91649    0.58330    0.06717    1.000
    S34      S        0.83305    0.66668    0.99833    1.000
    S35      S        0.83307    0.66652    0.13624    1.000
    Mo36     Mo       0.16657    0.83326    0.06712    1.000
    S37      S        0.08307    0.91655    0.99831    1.000
    S38      S        0.08327    0.91638    0.13621    1.000
    Mo39     Mo       0.41633    0.83293    0.06700    1.000
    S40      S        0.33331    0.91675    0.99818    1.000
    S41      S        0.33321    0.91633    0.13611    1.000
    Mo42     Mo       0.66644    0.83324    0.06726    1.000
    S43      S        0.58340    0.91676    0.99828    1.000
    S44      S        0.58285    0.91632    0.13626    1.000
    Mo45     Mo       0.91648    0.83323    0.06733    1.000
    S46      S        0.83319    0.91659    0.99839    1.000
    S47      S        0.83306    0.91650    0.13631    1.000
    N48      N        0.40050    0.66659    0.27811    1.000
    C49      C        0.51104    0.66613    0.29162    1.000
    H50      H        0.32929    0.59366    0.29462    1.000
    H51      H        0.40115    0.73776    0.29627    1.000
    H52      H        0.50688    0.58855    0.27167    1.000
    H53      H        0.52888    0.66559    0.33819    1.000
    H54      H        0.58496    0.74387    0.27205    1.000
