# CIF file generated by openbabel 3.1.0, see https://openbabel.org
data_I
_chemical_name_common ''
_cell_length_a 13.105
_cell_length_b 13.105
_cell_length_c 23.0122
_cell_angle_alpha 90
_cell_angle_beta 90
_cell_angle_gamma 120
loop_
    _atom_site_label
    _atom_site_type_symbol
    _atom_site_fract_x
    _atom_site_fract_y
    _atom_site_fract_z
    _atom_site_occupancy
    Mo0      Mo       0.16734    0.08485    0.06844    1.000
    S1       S        0.08414    0.16827    0.99949    1.000
    S2       S        0.08391    0.16818    0.13734    1.000
    Mo3      Mo       0.41734    0.08477    0.06837    1.000
    S4       S        0.33396    0.16827    0.99949    1.000
    S5       S        0.33410    0.16818    0.13734    1.000
    Mo6      Mo       0.66724    0.08464    0.06806    1.000
    S7       S        0.58380    0.16803    0.99927    1.000
    S8       S        0.58407    0.16790    0.13722    1.000
    Mo9      Mo       0.91727    0.08477    0.06837    1.000
    S10      S        0.83407    0.16803    0.99927    1.000
    S11      S        0.83366    0.16789    0.13722    1.000
    Mo12     Mo       0.16733    0.33491    0.06847    1.000
    S13      S        0.08395    0.41800    0.99936    1.000
    S14      S        0.08389    0.41820    0.13731    1.000
    Mo15     Mo       0.41741    0.33491    0.06846    1.000
    S16      S        0.33412    0.41840    0.99967    1.000
    S17      S        0.33406    0.41829    0.13756    1.000
    Mo18     Mo       0.66726    0.33467    0.06830    1.000
    S19      S        0.58389    0.41801    0.99936    1.000
    S20      S        0.58415    0.41820    0.13731    1.000
    Mo21     Mo       0.91724    0.33467    0.06830    1.000
    S22      S        0.83399    0.41815    0.99941    1.000
    S23      S        0.83393    0.41803    0.13723    1.000
    Mo24     Mo       0.16725    0.58478    0.06817    1.000
    S25      S        0.08398    0.66834    0.99944    1.000
    S26      S        0.08402    0.66808    0.13734    1.000
    Mo27     Mo       0.41746    0.58510    0.06871    1.000
    S28      S        0.33406    0.66798    0.99939    1.000
    S29      S        0.33331    0.66794    0.13734    1.000
    Mo30     Mo       0.66735    0.58478    0.06817    1.000
    S31      S        0.58375    0.66798    0.99939    1.000
    S32      S        0.58446    0.66795    0.13734    1.000
    Mo33     Mo       0.91733    0.58483    0.06837    1.000
    S34      S        0.83419    0.66834    0.99944    1.000
    S35      S        0.83389    0.66808    0.13734    1.000
    Mo36     Mo       0.16733    0.83488    0.06849    1.000
    S37      S        0.08399    0.91814    0.99952    1.000
    S38      S        0.08404    0.91826    0.13744    1.000
    Mo39     Mo       0.41706    0.83448    0.06839    1.000
    S40      S        0.33385    0.91802    0.99948    1.000
    S41      S        0.33409    0.91814    0.13744    1.000
    Mo42     Mo       0.66726    0.83448    0.06839    1.000
    S43      S        0.58372    0.91760    0.99928    1.000
    S44      S        0.58399    0.91813    0.13706    1.000
    Mo45     Mo       0.91739    0.83488    0.06849    1.000
    S46      S        0.83401    0.91803    0.99948    1.000
    S47      S        0.83388    0.91814    0.13743    1.000
    N48      N        0.47892    0.70909    0.26356    1.000
    C49      C        0.53891    0.83002    0.28821    1.000
    H50      H        0.51911    0.66371    0.27682    1.000
    H51      H        0.39362    0.66277    0.27715    1.000
    H52      H        0.62977    0.87709    0.27265    1.000
    H53      H        0.54013    0.83325    0.33586    1.000
    H54      H        0.49512    0.87681    0.27226    1.000
