# CIF file generated by openbabel 3.1.0, see https://openbabel.org
data_I
_chemical_name_common ''
_cell_length_a 13.105
_cell_length_b 13.105
_cell_length_c 23.0122
_cell_angle_alpha 90
_cell_angle_beta 90
_cell_angle_gamma 120
loop_
    _atom_site_label
    _atom_site_type_symbol
    _atom_site_fract_x
    _atom_site_fract_y
    _atom_site_fract_z
    _atom_site_occupancy
    Mo0      Mo       0.16531    0.08089    0.06874    1.000
    S1       S        0.08203    0.16422    0.99974    1.000
    S2       S        0.08227    0.16452    0.13766    1.000
    Mo3      Mo       0.41538    0.08110    0.06878    1.000
    S4       S        0.33193    0.16423    0.99974    1.000
    S5       S        0.33197    0.16452    0.13766    1.000
    Mo6      Mo       0.66550    0.08127    0.06881    1.000
    S7       S        0.58207    0.16450    0.99984    1.000
    S8       S        0.58203    0.16455    0.13774    1.000
    Mo9      Mo       0.91546    0.08111    0.06877    1.000
    S10      S        0.83216    0.16450    0.99984    1.000
    S11      S        0.83225    0.16456    0.13774    1.000
    Mo12     Mo       0.16562    0.33108    0.06856    1.000
    S13      S        0.08211    0.41447    0.99976    1.000
    S14      S        0.08237    0.41445    0.13769    1.000
    Mo15     Mo       0.41519    0.33108    0.06857    1.000
    S16      S        0.33218    0.41462    0.99960    1.000
    S17      S        0.33203    0.41433    0.13758    1.000
    Mo18     Mo       0.66539    0.33115    0.06878    1.000
    S19      S        0.58209    0.41447    0.99976    1.000
    S20      S        0.58181    0.41446    0.13769    1.000
    Mo21     Mo       0.91548    0.33115    0.06878    1.000
    S22      S        0.83209    0.41446    0.99986    1.000
    S23      S        0.83203    0.41433    0.13779    1.000
    Mo24     Mo       0.16565    0.58119    0.06871    1.000
    S25      S        0.08202    0.66439    0.99988    1.000
    S26      S        0.08219    0.66431    0.13779    1.000
    Mo27     Mo       0.41541    0.58106    0.06886    1.000
    S28      S        0.33227    0.66454    0.99974    1.000
    S29      S        0.33209    0.66435    0.13770    1.000
    Mo30     Mo       0.66528    0.58120    0.06870    1.000
    S31      S        0.58200    0.66454    0.99973    1.000
    S32      S        0.58202    0.66437    0.13770    1.000
    Mo33     Mo       0.91536    0.58099    0.06887    1.000
    S34      S        0.83210    0.66439    0.99988    1.000
    S35      S        0.83186    0.66432    0.13779    1.000
    Mo36     Mo       0.16535    0.83102    0.06885    1.000
    S37      S        0.08194    0.91415    0.99984    1.000
    S38      S        0.08204    0.91434    0.13779    1.000
    Mo39     Mo       0.41540    0.83107    0.06875    1.000
    S40      S        0.33199    0.91439    0.99986    1.000
    S41      S        0.33210    0.91441    0.13779    1.000
    Mo42     Mo       0.66541    0.83107    0.06873    1.000
    S43      S        0.58216    0.91461    0.99987    1.000
    S44      S        0.58216    0.91457    0.13778    1.000
    Mo45     Mo       0.91540    0.83102    0.06885    1.000
    S46      S        0.83214    0.91439    0.99985    1.000
    S47      S        0.83204    0.91441    0.13778    1.000
    N48      N        0.41248    0.57336    0.26306    1.000
    C49      C        0.47410    0.69708    0.28399    1.000
    H50      H        0.45274    0.52926    0.27813    1.000
    H51      H        0.32781    0.52924    0.27770    1.000
    H52      H        0.56402    0.74177    0.26711    1.000
    H53      H        0.47813    0.70642    0.33144    1.000
    H54      H        0.42953    0.74192    0.26649    1.000
