# CIF file generated by openbabel 3.1.0, see https://openbabel.org
data_I
_chemical_name_common ''
_cell_length_a 13.105
_cell_length_b 13.105
_cell_length_c 23.0122
_cell_angle_alpha 90
_cell_angle_beta 90
_cell_angle_gamma 120
loop_
    _atom_site_label
    _atom_site_type_symbol
    _atom_site_fract_x
    _atom_site_fract_y
    _atom_site_fract_z
    _atom_site_occupancy
    Mo0      Mo       0.16528    0.07956    0.06938    1.000
    S1       S        0.08192    0.16278    0.00038    1.000
    S2       S        0.08187    0.16290    0.13829    1.000
    Mo3      Mo       0.41521    0.07944    0.06938    1.000
    S4       S        0.33183    0.16270    0.00040    1.000
    S5       S        0.33204    0.16296    0.13832    1.000
    Mo6      Mo       0.66513    0.07932    0.06910    1.000
    S7       S        0.58160    0.16253    0.00024    1.000
    S8       S        0.58207    0.16286    0.13819    1.000
    Mo9      Mo       0.91519    0.07945    0.06933    1.000
    S10      S        0.83186    0.16257    0.00023    1.000
    S11      S        0.83177    0.16284    0.13818    1.000
    Mo12     Mo       0.16521    0.32949    0.06926    1.000
    S13      S        0.08181    0.41248    0.00008    1.000
    S14      S        0.08181    0.41296    0.13803    1.000
    Mo15     Mo       0.41528    0.32947    0.06926    1.000
    S16      S        0.33192    0.41284    0.00034    1.000
    S17      S        0.33198    0.41298    0.13828    1.000
    Mo18     Mo       0.66522    0.32938    0.06905    1.000
    S19      S        0.58161    0.41238    0.00003    1.000
    S20      S        0.58223    0.41306    0.13800    1.000
    Mo21     Mo       0.91517    0.32938    0.06907    1.000
    S22      S        0.83184    0.41266    0.00005    1.000
    S23      S        0.83195    0.41287    0.13792    1.000
    Mo24     Mo       0.16500    0.57940    0.06881    1.000
    S25      S        0.08189    0.66311    0.00002    1.000
    S26      S        0.08173    0.66267    0.13800    1.000
    Mo27     Mo       0.41517    0.57957    0.06926    1.000
    S28      S        0.33201    0.66296    0.00015    1.000
    S29      S        0.33095    0.66225    0.13801    1.000
    Mo30     Mo       0.66529    0.57936    0.06868    1.000
    S31      S        0.58175    0.66300    0.00010    1.000
    S32      S        0.58206    0.66198    0.13782    1.000
    Mo33     Mo       0.91520    0.57949    0.06895    1.000
    S34      S        0.83219    0.66313    0.99996    1.000
    S35      S        0.83166    0.66258    0.13795    1.000
    Mo36     Mo       0.16520    0.82949    0.06923    1.000
    S37      S        0.08205    0.91309    0.00033    1.000
    S38      S        0.08176    0.91270    0.13821    1.000
    Mo39     Mo       0.41523    0.82928    0.06946    1.000
    S40      S        0.33203    0.91279    0.00044    1.000
    S41      S        0.33180    0.91263    0.13836    1.000
    Mo42     Mo       0.66498    0.82931    0.06946    1.000
    S43      S        0.58172    0.91253    0.00035    1.000
    S44      S        0.58197    0.91308    0.13833    1.000
    Mo45     Mo       0.91520    0.82949    0.06919    1.000
    S46      S        0.83170    0.91281    0.00040    1.000
    S47      S        0.83182    0.91269    0.13833    1.000
    N48      N        0.49607    0.73375    0.25679    1.000
    C49      C        0.61479    0.79196    0.28387    1.000
    H50      H        0.45429    0.64472    0.26233    1.000
    H51      H        0.44406    0.76231    0.27510    1.000
    H52      H        0.66885    0.76157    0.26212    1.000
    H53      H        0.61452    0.77518    0.33057    1.000
    H54      H        0.65616    0.88689    0.27713    1.000
