# CIF file generated by openbabel 3.1.0, see https://openbabel.org
data_I
_chemical_name_common ''
_cell_length_a 13.105
_cell_length_b 13.105
_cell_length_c 23.0122
_cell_angle_alpha 90
_cell_angle_beta 90
_cell_angle_gamma 120
loop_
    _atom_site_label
    _atom_site_type_symbol
    _atom_site_fract_x
    _atom_site_fract_y
    _atom_site_fract_z
    _atom_site_occupancy
    Mo0      Mo       0.17157    0.09437    0.06927    1.000
    S1       S        0.08826    0.17762    0.00027    1.000
    S2       S        0.08812    0.17771    0.13817    1.000
    Mo3      Mo       0.42165    0.09438    0.06918    1.000
    S4       S        0.33812    0.17759    0.00027    1.000
    S5       S        0.33836    0.17772    0.13817    1.000
    Mo6      Mo       0.67157    0.09436    0.06870    1.000
    S7       S        0.58805    0.17770    0.99998    1.000
    S8       S        0.58854    0.17776    0.13795    1.000
    Mo9      Mo       0.92152    0.09439    0.06917    1.000
    S10      S        0.83844    0.17773    0.99999    1.000
    S11      S        0.83800    0.17775    0.13795    1.000
    Mo12     Mo       0.17153    0.34432    0.06919    1.000
    S13      S        0.08825    0.42745    0.99999    1.000
    S14      S        0.08819    0.42789    0.13796    1.000
    Mo15     Mo       0.42156    0.34431    0.06917    1.000
    S16      S        0.33823    0.42770    0.00030    1.000
    S17      S        0.33826    0.42771    0.13824    1.000
    Mo18     Mo       0.67164    0.34441    0.06893    1.000
    S19      S        0.58795    0.42739    0.99995    1.000
    S20      S        0.58848    0.42791    0.13793    1.000
    Mo21     Mo       0.92155    0.34443    0.06895    1.000
    S22      S        0.83831    0.42783    0.99998    1.000
    S23      S        0.83832    0.42789    0.13784    1.000
    Mo24     Mo       0.17152    0.59434    0.06873    1.000
    S25      S        0.08839    0.67811    0.99997    1.000
    S26      S        0.08827    0.67758    0.13793    1.000
    Mo27     Mo       0.42161    0.59441    0.06930    1.000
    S28      S        0.33847    0.67768    0.00007    1.000
    S29      S        0.33751    0.67731    0.13795    1.000
    Mo30     Mo       0.67162    0.59432    0.06866    1.000
    S31      S        0.58798    0.67767    0.00002    1.000
    S32      S        0.58870    0.67731    0.13787    1.000
    Mo33     Mo       0.92166    0.59452    0.06891    1.000
    S34      S        0.83856    0.67812    0.99994    1.000
    S35      S        0.83806    0.67757    0.13790    1.000
    Mo36     Mo       0.17164    0.84444    0.06917    1.000
    S37      S        0.08836    0.92791    0.00025    1.000
    S38      S        0.08820    0.92765    0.13817    1.000
    Mo39     Mo       0.42167    0.84420    0.06922    1.000
    S40      S        0.33835    0.92767    0.00027    1.000
    S41      S        0.33842    0.92762    0.13821    1.000
    Mo42     Mo       0.67132    0.84420    0.06919    1.000
    S43      S        0.58805    0.92734    0.00000    1.000
    S44      S        0.58856    0.92829    0.13784    1.000
    Mo45     Mo       0.92158    0.84444    0.06915    1.000
    S46      S        0.83812    0.92769    0.00025    1.000
    S47      S        0.83797    0.92760    0.13819    1.000
    N48      N        0.50771    0.76323    0.25728    1.000
    C49      C        0.45132    0.64486    0.28472    1.000
    H50      H        0.46709    0.80865    0.26983    1.000
    H51      H        0.59385    0.81222    0.26929    1.000
    H52      H        0.35968    0.59483    0.27046    1.000
    H53      H        0.45278    0.64656    0.33237    1.000
    H54      H        0.49617    0.59830    0.26989    1.000
