# CIF file generated by openbabel 3.1.0, see https://openbabel.org
data_I
_chemical_name_common ''
_cell_length_a 13.105
_cell_length_b 13.105
_cell_length_c 23.0122
_cell_angle_alpha 90
_cell_angle_beta 90
_cell_angle_gamma 120
loop_
    _atom_site_label
    _atom_site_type_symbol
    _atom_site_fract_x
    _atom_site_fract_y
    _atom_site_fract_z
    _atom_site_occupancy
    Mo0      Mo       0.16664    0.08398    0.06770    1.000
    S1       S        0.08335    0.16734    0.99873    1.000
    S2       S        0.08314    0.16719    0.13667    1.000
    Mo3      Mo       0.41670    0.08395    0.06761    1.000
    S4       S        0.33328    0.16733    0.99872    1.000
    S5       S        0.33335    0.16717    0.13667    1.000
    Mo6      Mo       0.66672    0.08408    0.06746    1.000
    S7       S        0.58333    0.16743    0.99858    1.000
    S8       S        0.58339    0.16724    0.13656    1.000
    Mo9      Mo       0.91658    0.08396    0.06762    1.000
    S10      S        0.83346    0.16745    0.99857    1.000
    S11      S        0.83321    0.16729    0.13656    1.000
    Mo12     Mo       0.16659    0.33394    0.06774    1.000
    S13      S        0.08334    0.41723    0.99867    1.000
    S14      S        0.08327    0.41737    0.13664    1.000
    Mo15     Mo       0.41667    0.33392    0.06774    1.000
    S16      S        0.33325    0.41716    0.99879    1.000
    S17      S        0.33330    0.41727    0.13675    1.000
    Mo18     Mo       0.66669    0.33399    0.06763    1.000
    S19      S        0.58323    0.41718    0.99868    1.000
    S20      S        0.58343    0.41730    0.13664    1.000
    Mo21     Mo       0.91666    0.33402    0.06762    1.000
    S22      S        0.83338    0.41742    0.99867    1.000
    S23      S        0.83335    0.41735    0.13663    1.000
    Mo24     Mo       0.16657    0.58393    0.06757    1.000
    S25      S        0.08327    0.66730    0.99863    1.000
    S26      S        0.08343    0.66742    0.13659    1.000
    Mo27     Mo       0.41663    0.58390    0.06772    1.000
    S28      S        0.33328    0.66712    0.99863    1.000
    S29      S        0.33317    0.66733    0.13654    1.000
    Mo30     Mo       0.66673    0.58388    0.06758    1.000
    S31      S        0.58323    0.66709    0.99865    1.000
    S32      S        0.58352    0.66728    0.13656    1.000
    Mo33     Mo       0.91671    0.58403    0.06766    1.000
    S34      S        0.83342    0.66729    0.99863    1.000
    S35      S        0.83339    0.66740    0.13659    1.000
    Mo36     Mo       0.16669    0.83401    0.06758    1.000
    S37      S        0.08340    0.91747    0.99863    1.000
    S38      S        0.08331    0.91726    0.13659    1.000
    Mo39     Mo       0.41665    0.83394    0.06748    1.000
    S40      S        0.33334    0.91732    0.99859    1.000
    S41      S        0.33340    0.91721    0.13655    1.000
    Mo42     Mo       0.66665    0.83392    0.06750    1.000
    S43      S        0.58335    0.91731    0.99848    1.000
    S44      S        0.58342    0.91748    0.13625    1.000
    Mo45     Mo       0.91668    0.83400    0.06758    1.000
    S46      S        0.83332    0.91731    0.99860    1.000
    S47      S        0.83316    0.91721    0.13656    1.000
    N48      N        0.46887    0.69546    0.28680    1.000
    C49      C        0.53771    0.82359    0.29930    1.000
    H50      H        0.39437    0.67503    0.26404    1.000
    H51      H        0.51638    0.66964    0.26202    1.000
    H52      H        0.48382    0.84816    0.32539    1.000
    H53      H        0.56771    0.88038    0.26061    1.000
    H54      H        0.61506    0.84174    0.32493    1.000
