# CIF file generated by openbabel 3.1.0, see https://openbabel.org
data_I
_chemical_name_common ''
_cell_length_a 13.105
_cell_length_b 13.105
_cell_length_c 23.0122
_cell_angle_alpha 90
_cell_angle_beta 90
_cell_angle_gamma 120
loop_
    _atom_site_label
    _atom_site_type_symbol
    _atom_site_fract_x
    _atom_site_fract_y
    _atom_site_fract_z
    _atom_site_occupancy
    Mo0      Mo       0.16655    0.08346    0.06934    1.000
    S1       S        0.08318    0.16675    0.00036    1.000
    S2       S        0.08318    0.16678    0.13828    1.000
    Mo3      Mo       0.41656    0.08344    0.06933    1.000
    S4       S        0.33320    0.16674    0.00036    1.000
    S5       S        0.33325    0.16679    0.13828    1.000
    Mo6      Mo       0.66655    0.08347    0.06923    1.000
    S7       S        0.58314    0.16677    0.00032    1.000
    S8       S        0.58324    0.16676    0.13825    1.000
    Mo9      Mo       0.91652    0.08345    0.06933    1.000
    S10      S        0.83326    0.16679    0.00033    1.000
    S11      S        0.83315    0.16677    0.13825    1.000
    Mo12     Mo       0.16653    0.33341    0.06929    1.000
    S13      S        0.08311    0.41667    0.00032    1.000
    S14      S        0.08316    0.41679    0.13826    1.000
    Mo15     Mo       0.41654    0.33342    0.06928    1.000
    S16      S        0.33325    0.41685    0.00035    1.000
    S17      S        0.33311    0.41655    0.13825    1.000
    Mo18     Mo       0.66655    0.33341    0.06930    1.000
    S19      S        0.58322    0.41670    0.00031    1.000
    S20      S        0.58328    0.41679    0.13826    1.000
    Mo21     Mo       0.91649    0.33342    0.06930    1.000
    S22      S        0.83318    0.41674    0.00033    1.000
    S23      S        0.83320    0.41678    0.13824    1.000
    Mo24     Mo       0.16645    0.58341    0.06921    1.000
    S25      S        0.08318    0.66686    0.00031    1.000
    S26      S        0.08314    0.66674    0.13823    1.000
    Mo27     Mo       0.41650    0.58336    0.06940    1.000
    S28      S        0.33329    0.66672    0.00034    1.000
    S29      S        0.33272    0.66657    0.13818    1.000
    Mo30     Mo       0.66661    0.58342    0.06922    1.000
    S31      S        0.58310    0.66675    0.00036    1.000
    S32      S        0.58347    0.66658    0.13821    1.000
    Mo33     Mo       0.91652    0.58342    0.06927    1.000
    S34      S        0.83332    0.66688    0.00031    1.000
    S35      S        0.83325    0.66676    0.13823    1.000
    Mo36     Mo       0.16652    0.83347    0.06933    1.000
    S37      S        0.08325    0.91684    0.00037    1.000
    S38      S        0.08324    0.91682    0.13830    1.000
    Mo39     Mo       0.41658    0.83344    0.06930    1.000
    S40      S        0.33320    0.91676    0.00038    1.000
    S41      S        0.33323    0.91675    0.13830    1.000
    Mo42     Mo       0.66650    0.83345    0.06932    1.000
    S43      S        0.58320    0.91675    0.00032    1.000
    S44      S        0.58332    0.91701    0.13821    1.000
    Mo45     Mo       0.91660    0.83348    0.06933    1.000
    S46      S        0.83319    0.91677    0.00039    1.000
    S47      S        0.83319    0.91677    0.13831    1.000
    N48      N        0.40995    0.57622    0.28155    1.000
    C49      C        0.47665    0.70660    0.28389    1.000
    H50      H        0.33190    0.54627    0.26031    1.000
    H51      H        0.45593    0.54439    0.25986    1.000
    H52      H        0.42523    0.73711    0.30800    1.000
    H53      H        0.49838    0.75051    0.24128    1.000
    H54      H        0.55898    0.73508    0.30730    1.000
