# CIF file generated by openbabel 3.1.0, see https://openbabel.org
data_I
_chemical_name_common ''
_cell_length_a 13.105
_cell_length_b 13.105
_cell_length_c 23.0122
_cell_angle_alpha 90
_cell_angle_beta 90
_cell_angle_gamma 120
loop_
    _atom_site_label
    _atom_site_type_symbol
    _atom_site_fract_x
    _atom_site_fract_y
    _atom_site_fract_z
    _atom_site_occupancy
    Mo0      Mo       0.16696    0.08361    0.06872    1.000
    S1       S        0.08351    0.16677    0.99969    1.000
    S2       S        0.08372    0.16712    0.13765    1.000
    Mo3      Mo       0.41692    0.08357    0.06873    1.000
    S4       S        0.33359    0.16686    0.99971    1.000
    S5       S        0.33366    0.16710    0.13766    1.000
    Mo6      Mo       0.66685    0.08343    0.06874    1.000
    S7       S        0.58358    0.16683    0.99978    1.000
    S8       S        0.58348    0.16668    0.13775    1.000
    Mo9      Mo       0.91694    0.08353    0.06873    1.000
    S10      S        0.83344    0.16670    0.99975    1.000
    S11      S        0.83344    0.16667    0.13772    1.000
    Mo12     Mo       0.16680    0.33355    0.06851    1.000
    S13      S        0.08329    0.41688    0.99971    1.000
    S14      S        0.08337    0.41663    0.13766    1.000
    Mo15     Mo       0.41691    0.33361    0.06856    1.000
    S16      S        0.33361    0.41707    0.99955    1.000
    S17      S        0.33335    0.41651    0.13737    1.000
    Mo18     Mo       0.66684    0.33341    0.06881    1.000
    S19      S        0.58382    0.41702    0.99981    1.000
    S20      S        0.58337    0.41673    0.13777    1.000
    Mo21     Mo       0.91669    0.33336    0.06873    1.000
    S22      S        0.83344    0.41683    0.99984    1.000
    S23      S        0.83346    0.41669    0.13780    1.000
    Mo24     Mo       0.16683    0.58347    0.06877    1.000
    S25      S        0.08345    0.66682    0.99986    1.000
    S26      S        0.08364    0.66686    0.13779    1.000
    Mo27     Mo       0.41691    0.58356    0.06874    1.000
    S28      S        0.33348    0.66680    0.99973    1.000
    S29      S        0.33368    0.66716    0.13764    1.000
    Mo30     Mo       0.66701    0.58357    0.06887    1.000
    S31      S        0.58373    0.66688    0.99983    1.000
    S32      S        0.58364    0.66706    0.13776    1.000
    Mo33     Mo       0.91688    0.58345    0.06887    1.000
    S34      S        0.83368    0.66685    0.99991    1.000
    S35      S        0.83371    0.66692    0.13784    1.000
    Mo36     Mo       0.16692    0.83357    0.06878    1.000
    S37      S        0.08364    0.91687    0.99979    1.000
    S38      S        0.08379    0.91706    0.13778    1.000
    Mo39     Mo       0.41690    0.83357    0.06863    1.000
    S40      S        0.33350    0.91690    0.99974    1.000
    S41      S        0.33362    0.91689    0.13767    1.000
    Mo42     Mo       0.66707    0.83360    0.06873    1.000
    S43      S        0.58367    0.91686    0.99973    1.000
    S44      S        0.58352    0.91677    0.13767    1.000
    Mo45     Mo       0.91709    0.83358    0.06882    1.000
    S46      S        0.83375    0.91684    0.99980    1.000
    S47      S        0.83374    0.91694    0.13773    1.000
    N48      N        0.43901    0.51621    0.28504    1.000
    C49      C        0.32482    0.51356    0.28803    1.000
    H50      H        0.43029    0.44383    0.26405    1.000
    H51      H        0.49983    0.58800    0.26258    1.000
    H52      H        0.26248    0.43637    0.31286    1.000
    H53      H        0.28458    0.51057    0.24563    1.000
    H54      H        0.33734    0.59181    0.31105    1.000
