# CIF file generated by openbabel 3.1.0, see https://openbabel.org
data_I
_chemical_name_common ''
_cell_length_a 13.105
_cell_length_b 13.105
_cell_length_c 23.0122
_cell_angle_alpha 90
_cell_angle_beta 90
_cell_angle_gamma 120
loop_
    _atom_site_label
    _atom_site_type_symbol
    _atom_site_fract_x
    _atom_site_fract_y
    _atom_site_fract_z
    _atom_site_occupancy
    Mo0      Mo       0.16767    0.08585    0.06827    1.000
    S1       S        0.08431    0.16913    0.99931    1.000
    S2       S        0.08429    0.16915    0.13721    1.000
    Mo3      Mo       0.41761    0.08578    0.06824    1.000
    S4       S        0.33431    0.16913    0.99931    1.000
    S5       S        0.33434    0.16915    0.13721    1.000
    Mo6      Mo       0.66759    0.08570    0.06799    1.000
    S7       S        0.58417    0.16914    0.99922    1.000
    S8       S        0.58434    0.16895    0.13712    1.000
    Mo9      Mo       0.91765    0.08578    0.06824    1.000
    S10      S        0.83445    0.16914    0.99923    1.000
    S11      S        0.83409    0.16895    0.13712    1.000
    Mo12     Mo       0.16764    0.33580    0.06825    1.000
    S13      S        0.08424    0.41905    0.99930    1.000
    S14      S        0.08430    0.41919    0.13717    1.000
    Mo15     Mo       0.41766    0.33580    0.06825    1.000
    S16      S        0.33429    0.41906    0.99929    1.000
    S17      S        0.33432    0.41914    0.13724    1.000
    Mo18     Mo       0.66765    0.33574    0.06823    1.000
    S19      S        0.58433    0.41907    0.99930    1.000
    S20      S        0.58439    0.41917    0.13718    1.000
    Mo21     Mo       0.91758    0.33574    0.06823    1.000
    S22      S        0.83423    0.41896    0.99925    1.000
    S23      S        0.83430    0.41910    0.13716    1.000
    Mo24     Mo       0.16758    0.58580    0.06815    1.000
    S25      S        0.08430    0.66919    0.99921    1.000
    S26      S        0.08421    0.66903    0.13714    1.000
    Mo27     Mo       0.41761    0.58573    0.06824    1.000
    S28      S        0.33424    0.66893    0.99918    1.000
    S29      S        0.33419    0.66920    0.13707    1.000
    Mo30     Mo       0.66771    0.58580    0.06818    1.000
    S31      S        0.58421    0.66893    0.99920    1.000
    S32      S        0.58447    0.66919    0.13710    1.000
    Mo33     Mo       0.91761    0.58572    0.06816    1.000
    S34      S        0.83436    0.66918    0.99923    1.000
    S35      S        0.83434    0.66904    0.13715    1.000
    Mo36     Mo       0.16760    0.83575    0.06825    1.000
    S37      S        0.08434    0.91919    0.99934    1.000
    S38      S        0.08432    0.91914    0.13721    1.000
    Mo39     Mo       0.41764    0.83574    0.06801    1.000
    S40      S        0.33418    0.91915    0.99924    1.000
    S41      S        0.33439    0.91898    0.13716    1.000
    Mo42     Mo       0.66760    0.83574    0.06802    1.000
    S43      S        0.58424    0.91897    0.99898    1.000
    S44      S        0.58432    0.91917    0.13680    1.000
    Mo45     Mo       0.91765    0.83575    0.06825    1.000
    S46      S        0.83446    0.91915    0.99925    1.000
    S47      S        0.83410    0.91899    0.13716    1.000
    N48      N        0.53774    0.82681    0.28902    1.000
    C49      C        0.47072    0.69632    0.29160    1.000
    H50      H        0.61522    0.85622    0.26733    1.000
    H51      H        0.49150    0.85845    0.26743    1.000
    H52      H        0.52169    0.66606    0.31629    1.000
    H53      H        0.44955    0.65213    0.24905    1.000
    H54      H        0.38819    0.66851    0.31469    1.000
