# CIF file generated by openbabel 3.1.0, see https://openbabel.org
data_I
_chemical_name_common ''
_cell_length_a 13.105
_cell_length_b 13.105
_cell_length_c 23.0122
_cell_angle_alpha 90
_cell_angle_beta 90
_cell_angle_gamma 120
loop_
    _atom_site_label
    _atom_site_type_symbol
    _atom_site_fract_x
    _atom_site_fract_y
    _atom_site_fract_z
    _atom_site_occupancy
    Mo0      Mo       0.16662    0.08350    0.06681    1.000
    S1       S        0.08329    0.16684    0.99785    1.000
    S2       S        0.08328    0.16681    0.13577    1.000
    Mo3      Mo       0.41661    0.08349    0.06681    1.000
    S4       S        0.33327    0.16680    0.99784    1.000
    S5       S        0.33328    0.16682    0.13577    1.000
    Mo6      Mo       0.66663    0.08351    0.06672    1.000
    S7       S        0.58324    0.16685    0.99781    1.000
    S8       S        0.58331    0.16681    0.13574    1.000
    Mo9      Mo       0.91662    0.08350    0.06680    1.000
    S10      S        0.83337    0.16688    0.99782    1.000
    S11      S        0.83324    0.16681    0.13575    1.000
    Mo12     Mo       0.16661    0.33348    0.06682    1.000
    S13      S        0.08324    0.41676    0.99784    1.000
    S14      S        0.08328    0.41684    0.13576    1.000
    Mo15     Mo       0.41662    0.33347    0.06680    1.000
    S16      S        0.33326    0.41678    0.99785    1.000
    S17      S        0.33335    0.41689    0.13578    1.000
    Mo18     Mo       0.66666    0.33348    0.06679    1.000
    S19      S        0.58325    0.41668    0.99779    1.000
    S20      S        0.58334    0.41685    0.13572    1.000
    Mo21     Mo       0.91661    0.33350    0.06681    1.000
    S22      S        0.83331    0.41682    0.99784    1.000
    S23      S        0.83328    0.41683    0.13577    1.000
    Mo24     Mo       0.16660    0.58348    0.06674    1.000
    S25      S        0.08328    0.66687    0.99783    1.000
    S26      S        0.08330    0.66681    0.13576    1.000
    Mo27     Mo       0.41667    0.58350    0.06674    1.000
    S28      S        0.33330    0.66683    0.99778    1.000
    S29      S        0.33312    0.66670    0.13566    1.000
    Mo30     Mo       0.66666    0.58346    0.06666    1.000
    S31      S        0.58328    0.66680    0.99771    1.000
    S32      S        0.58344    0.66667    0.13559    1.000
    Mo33     Mo       0.91664    0.58347    0.06679    1.000
    S34      S        0.83343    0.66686    0.99779    1.000
    S35      S        0.83326    0.66679    0.13572    1.000
    Mo36     Mo       0.16663    0.83351    0.06682    1.000
    S37      S        0.08332    0.91685    0.99784    1.000
    S38      S        0.08328    0.91685    0.13577    1.000
    Mo39     Mo       0.41662    0.83347    0.06678    1.000
    S40      S        0.33327    0.91683    0.99786    1.000
    S41      S        0.33332    0.91680    0.13581    1.000
    Mo42     Mo       0.66660    0.83343    0.06673    1.000
    S43      S        0.58325    0.91678    0.99777    1.000
    S44      S        0.58341    0.91700    0.13563    1.000
    Mo45     Mo       0.91665    0.83350    0.06679    1.000
    S46      S        0.83333    0.91685    0.99783    1.000
    S47      S        0.83320    0.91676    0.13577    1.000
    N48      N        0.49992    0.75360    0.34737    1.000
    C49      C        0.49416    0.74769    0.28303    1.000
    H50      H        0.46072    0.67128    0.36487    1.000
    H51      H        0.58509    0.79590    0.36119    1.000
    H52      H        0.40193    0.70269    0.26950    1.000
    H53      H        0.53649    0.70208    0.26291    1.000
    H54      H        0.53608    0.83714    0.26559    1.000
