# CIF file generated by openbabel 3.1.0, see https://openbabel.org
data_I
_chemical_name_common ''
_cell_length_a 13.105
_cell_length_b 13.105
_cell_length_c 23.0122
_cell_angle_alpha 90
_cell_angle_beta 90
_cell_angle_gamma 120
loop_
    _atom_site_label
    _atom_site_type_symbol
    _atom_site_fract_x
    _atom_site_fract_y
    _atom_site_fract_z
    _atom_site_occupancy
    Mo0      Mo       0.16635    0.08317    0.06742    1.000
    S1       S        0.08302    0.16646    0.99844    1.000
    S2       S        0.08303    0.16653    0.13637    1.000
    Mo3      Mo       0.41637    0.08319    0.06737    1.000
    S4       S        0.33298    0.16649    0.99844    1.000
    S5       S        0.33306    0.16652    0.13636    1.000
    Mo6      Mo       0.66644    0.08330    0.06724    1.000
    S7       S        0.58299    0.16660    0.99836    1.000
    S8       S        0.58309    0.16653    0.13631    1.000
    Mo9      Mo       0.91636    0.08317    0.06740    1.000
    S10      S        0.83320    0.16660    0.99836    1.000
    S11      S        0.83302    0.16657    0.13632    1.000
    Mo12     Mo       0.16637    0.33318    0.06738    1.000
    S13      S        0.08301    0.41641    0.99835    1.000
    S14      S        0.08308    0.41658    0.13631    1.000
    Mo15     Mo       0.41637    0.33318    0.06738    1.000
    S16      S        0.33301    0.41644    0.99839    1.000
    S17      S        0.33310    0.41665    0.13634    1.000
    Mo18     Mo       0.66639    0.33319    0.06735    1.000
    S19      S        0.58299    0.41639    0.99837    1.000
    S20      S        0.58308    0.41653    0.13632    1.000
    Mo21     Mo       0.91642    0.33321    0.06735    1.000
    S22      S        0.83306    0.41652    0.99839    1.000
    S23      S        0.83308    0.41652    0.13632    1.000
    Mo24     Mo       0.16632    0.58315    0.06724    1.000
    S25      S        0.08299    0.66658    0.99835    1.000
    S26      S        0.08307    0.66647    0.13631    1.000
    Mo27     Mo       0.41639    0.58319    0.06726    1.000
    S28      S        0.33304    0.66652    0.99826    1.000
    S29      S        0.33279    0.66639    0.13612    1.000
    Mo30     Mo       0.66643    0.58313    0.06726    1.000
    S31      S        0.58310    0.66651    0.99829    1.000
    S32      S        0.58316    0.66634    0.13617    1.000
    Mo33     Mo       0.91641    0.58318    0.06735    1.000
    S34      S        0.83318    0.66658    0.99838    1.000
    S35      S        0.83302    0.66643    0.13633    1.000
    Mo36     Mo       0.16636    0.83317    0.06738    1.000
    S37      S        0.08301    0.91653    0.99845    1.000
    S38      S        0.08302    0.91647    0.13637    1.000
    Mo39     Mo       0.41639    0.83320    0.06726    1.000
    S40      S        0.33300    0.91656    0.99838    1.000
    S41      S        0.33310    0.91645    0.13634    1.000
    Mo42     Mo       0.66633    0.83316    0.06732    1.000
    S43      S        0.58310    0.91657    0.99829    1.000
    S44      S        0.58318    0.91685    0.13616    1.000
    Mo45     Mo       0.91635    0.83316    0.06741    1.000
    S46      S        0.83307    0.91652    0.99843    1.000
    S47      S        0.83287    0.91643    0.13639    1.000
    N48      N        0.49562    0.75060    0.34342    1.000
    C49      C        0.49778    0.74882    0.27905    1.000
    H50      H        0.53846    0.71071    0.36043    1.000
    H51      H        0.53728    0.83478    0.35862    1.000
    H52      H        0.45069    0.65737    0.26423    1.000
    H53      H        0.58631    0.79211    0.25952    1.000
    H54      H        0.45092    0.79203    0.26232    1.000
