# CIF file generated by openbabel 3.1.0, see https://openbabel.org
data_I
_chemical_name_common ''
_cell_length_a 13.105
_cell_length_b 13.105
_cell_length_c 23.0122
_cell_angle_alpha 90
_cell_angle_beta 90
_cell_angle_gamma 120
loop_
    _atom_site_label
    _atom_site_type_symbol
    _atom_site_fract_x
    _atom_site_fract_y
    _atom_site_fract_z
    _atom_site_occupancy
    Mo0      Mo       0.16679    0.08420    0.06300    1.000
    S1       S        0.08332    0.16742    0.99412    1.000
    S2       S        0.08381    0.16767    0.13215    1.000
    Mo3      Mo       0.41680    0.08420    0.06300    1.000
    S4       S        0.33327    0.16713    0.99378    1.000
    S5       S        0.33385    0.16832    0.13144    1.000
    Mo6      Mo       0.66670    0.08413    0.06322    1.000
    S7       S        0.58349    0.16741    0.99413    1.000
    S8       S        0.58326    0.16767    0.13216    1.000
    Mo9      Mo       0.91683    0.08413    0.06322    1.000
    S10      S        0.83342    0.16744    0.99430    1.000
    S11      S        0.83342    0.16744    0.13216    1.000
    Mo12     Mo       0.16687    0.33417    0.06297    1.000
    S13      S        0.08336    0.41755    0.99422    1.000
    S14      S        0.08365    0.41736    0.13218    1.000
    Mo15     Mo       0.41690    0.33440    0.06245    1.000
    S16      S        0.33325    0.41774    0.99372    1.000
    S17      S        0.33361    0.41727    0.13161    1.000
    Mo18     Mo       0.66670    0.33417    0.06297    1.000
    S19      S        0.58389    0.41774    0.99372    1.000
    S20      S        0.58306    0.41727    0.13161    1.000
    Mo21     Mo       0.91677    0.33415    0.06324    1.000
    S22      S        0.83359    0.41755    0.99422    1.000
    S23      S        0.83311    0.41736    0.13218    1.000
    Mo24     Mo       0.16680    0.58410    0.06326    1.000
    S25      S        0.08345    0.66748    0.99435    1.000
    S26      S        0.08340    0.66739    0.13221    1.000
    Mo27     Mo       0.41673    0.58408    0.06298    1.000
    S28      S        0.33336    0.66763    0.99424    1.000
    S29      S        0.33353    0.66725    0.13223    1.000
    Mo30     Mo       0.66675    0.58408    0.06299    1.000
    S31      S        0.58346    0.66752    0.99407    1.000
    S32      S        0.58332    0.66724    0.13206    1.000
    Mo33     Mo       0.91671    0.58410    0.06326    1.000
    S34      S        0.83368    0.66762    0.99424    1.000
    S35      S        0.83312    0.66725    0.13223    1.000
    Mo36     Mo       0.16679    0.83418    0.06331    1.000
    S37      S        0.08332    0.91726    0.99428    1.000
    S38      S        0.08362    0.91779    0.13223    1.000
    Mo39     Mo       0.41675    0.83412    0.06329    1.000
    S40      S        0.33335    0.91726    0.99428    1.000
    S41      S        0.33358    0.91779    0.13223    1.000
    Mo42     Mo       0.66673    0.83406    0.06313    1.000
    S43      S        0.58335    0.91741    0.99428    1.000
    S44      S        0.58346    0.91738    0.13219    1.000
    Mo45     Mo       0.91677    0.83412    0.06329    1.000
    S46      S        0.83347    0.91741    0.99428    1.000
    S47      S        0.83333    0.91738    0.13219    1.000
    C48      C        0.31626    0.12918    0.29175    1.000
    H49      H        0.23193    0.09556    0.31410    1.000
    H50      H        0.36740    0.09620    0.31419    1.000
    H51      H        0.29742    0.09109    0.24799    1.000
    C52      C        0.38258    0.26282    0.28920    1.000
    C53      C        0.32186    0.32595    0.28774    1.000
    H54      H        0.22621    0.27835    0.28893    1.000
    C55      C        0.38290    0.44916    0.28514    1.000
    H56      H        0.33432    0.49610    0.28408    1.000
    C57      C        0.50616    0.51170    0.28387    1.000
    H58      H        0.55352    0.60710    0.28201    1.000
    C59      C        0.50640    0.32677    0.28769    1.000
    H60      H        0.55511    0.27983    0.28878    1.000
    C61      C        0.56775    0.45001    0.28509    1.000
    H62      H        0.66327    0.49762    0.28398    1.000
