# CIF file generated by openbabel 3.1.0, see https://openbabel.org
data_I
_chemical_name_common ''
_cell_length_a 13.105
_cell_length_b 13.105
_cell_length_c 23.0122
_cell_angle_alpha 90
_cell_angle_beta 90
_cell_angle_gamma 120
loop_
    _atom_site_label
    _atom_site_type_symbol
    _atom_site_fract_x
    _atom_site_fract_y
    _atom_site_fract_z
    _atom_site_occupancy
    Mo0      Mo       0.16849    0.08706    0.06391    1.000
    S1       S        0.08503    0.17022    0.99495    1.000
    S2       S        0.08508    0.17026    0.13298    1.000
    Mo3      Mo       0.41829    0.08706    0.06391    1.000
    S4       S        0.33492    0.17012    0.99475    1.000
    S5       S        0.33528    0.17083    0.13252    1.000
    Mo6      Mo       0.66825    0.08692    0.06388    1.000
    S7       S        0.58492    0.17023    0.99495    1.000
    S8       S        0.58490    0.17026    0.13298    1.000
    Mo9      Mo       0.91839    0.08692    0.06388    1.000
    S10      S        0.83502    0.17032    0.99499    1.000
    S11      S        0.83491    0.17010    0.13291    1.000
    Mo12     Mo       0.16836    0.33689    0.06389    1.000
    S13      S        0.08486    0.42018    0.99504    1.000
    S14      S        0.08510    0.42012    0.13297    1.000
    Mo15     Mo       0.41839    0.33705    0.06358    1.000
    S16      S        0.33473    0.42014    0.99466    1.000
    S17      S        0.33524    0.42050    0.13261    1.000
    Mo18     Mo       0.66825    0.33690    0.06389    1.000
    S19      S        0.58513    0.42015    0.99466    1.000
    S20      S        0.58498    0.42050    0.13261    1.000
    Mo21     Mo       0.91828    0.33684    0.06403    1.000
    S22      S        0.83504    0.42018    0.99505    1.000
    S23      S        0.83474    0.42012    0.13297    1.000
    Mo24     Mo       0.16828    0.58685    0.06399    1.000
    S25      S        0.08499    0.67025    0.99510    1.000
    S26      S        0.08493    0.67014    0.13299    1.000
    Mo27     Mo       0.41827    0.58695    0.06352    1.000
    S28      S        0.33469    0.67033    0.99484    1.000
    S29      S        0.33516    0.67010    0.13281    1.000
    Mo30     Mo       0.66839    0.58695    0.06352    1.000
    S31      S        0.58505    0.67037    0.99453    1.000
    S32      S        0.58515    0.67057    0.13224    1.000
    Mo33     Mo       0.91830    0.58685    0.06399    1.000
    S34      S        0.83536    0.67033    0.99483    1.000
    S35      S        0.83465    0.67010    0.13281    1.000
    Mo36     Mo       0.16831    0.83690    0.06411    1.000
    S37      S        0.08515    0.92023    0.99506    1.000
    S38      S        0.08503    0.92043    0.13304    1.000
    Mo39     Mo       0.41829    0.83693    0.06389    1.000
    S40      S        0.33480    0.92023    0.99506    1.000
    S41      S        0.33513    0.92043    0.13304    1.000
    Mo42     Mo       0.66842    0.83713    0.06354    1.000
    S43      S        0.58481    0.92042    0.99481    1.000
    S44      S        0.58505    0.92013    0.13273    1.000
    Mo45     Mo       0.91837    0.83694    0.06389    1.000
    S46      S        0.83533    0.92042    0.99481    1.000
    S47      S        0.83480    0.92013    0.13273    1.000
    C48      C        0.50674    0.51490    0.28618    1.000
    H49      H        0.59171    0.55022    0.30811    1.000
    H50      H        0.45603    0.54919    0.30798    1.000
    H51      H        0.52441    0.55045    0.24191    1.000
    C52      C        0.44067    0.38129    0.28569    1.000
    C53      C        0.50161    0.31839    0.28522    1.000
    H54      H        0.59726    0.36640    0.28553    1.000
    C55      C        0.44097    0.19510    0.28485    1.000
    H56      H        0.48986    0.14847    0.28472    1.000
    C57      C        0.31769    0.13216    0.28479    1.000
    H58      H        0.27050    0.03667    0.28446    1.000
    C59      C        0.31685    0.31695    0.28508    1.000
    H60      H        0.26798    0.36372    0.28528    1.000
    C61      C        0.25579    0.19359    0.28472    1.000
    H62      H        0.16026    0.14575    0.28447    1.000
