# CIF file generated by openbabel 3.1.0, see https://openbabel.org
data_I
_chemical_name_common ''
_cell_length_a 13.105
_cell_length_b 13.105
_cell_length_c 23.0122
_cell_angle_alpha 90
_cell_angle_beta 90
_cell_angle_gamma 120
loop_
    _atom_site_label
    _atom_site_type_symbol
    _atom_site_fract_x
    _atom_site_fract_y
    _atom_site_fract_z
    _atom_site_occupancy
    Mo0      Mo       0.16248    0.08133    0.06449    1.000
    S1       S        0.07907    0.16462    0.99558    1.000
    S2       S        0.07935    0.16481    0.13352    1.000
    Mo3      Mo       0.41253    0.08139    0.06455    1.000
    S4       S        0.32907    0.16445    0.99546    1.000
    S5       S        0.32919    0.16482    0.13338    1.000
    Mo6      Mo       0.66255    0.08145    0.06459    1.000
    S7       S        0.57919    0.16468    0.99559    1.000
    S8       S        0.57923    0.16498    0.13356    1.000
    Mo9      Mo       0.91252    0.08138    0.06462    1.000
    S10      S        0.82925    0.16475    0.99568    1.000
    S11      S        0.82916    0.16475    0.13360    1.000
    Mo12     Mo       0.16245    0.33140    0.06439    1.000
    S13      S        0.07910    0.41485    0.99560    1.000
    S14      S        0.07924    0.41470    0.13356    1.000
    Mo15     Mo       0.41245    0.33137    0.06426    1.000
    S16      S        0.32911    0.41481    0.99537    1.000
    S17      S        0.32905    0.41455    0.13319    1.000
    Mo18     Mo       0.66242    0.33152    0.06443    1.000
    S19      S        0.57910    0.41461    0.99521    1.000
    S20      S        0.57905    0.41507    0.13300    1.000
    Mo21     Mo       0.91247    0.33142    0.06461    1.000
    S22      S        0.82919    0.41459    0.99552    1.000
    S23      S        0.82899    0.41487    0.13354    1.000
    Mo24     Mo       0.16257    0.58141    0.06463    1.000
    S25      S        0.07940    0.66479    0.99559    1.000
    S26      S        0.07903    0.66468    0.13350    1.000
    Mo27     Mo       0.41258    0.58140    0.06446    1.000
    S28      S        0.32918    0.66478    0.99565    1.000
    S29      S        0.32932    0.66463    0.13362    1.000
    Mo30     Mo       0.66247    0.58140    0.06412    1.000
    S31      S        0.57906    0.66487    0.99534    1.000
    S32      S        0.57942    0.66470    0.13333    1.000
    Mo33     Mo       0.91252    0.58134    0.06438    1.000
    S34      S        0.82942    0.66482    0.99529    1.000
    S35      S        0.82899    0.66443    0.13317    1.000
    Mo36     Mo       0.16250    0.83141    0.06458    1.000
    S37      S        0.07923    0.91472    0.99554    1.000
    S38      S        0.07903    0.91465    0.13352    1.000
    Mo39     Mo       0.41254    0.83139    0.06465    1.000
    S40      S        0.32921    0.91468    0.99565    1.000
    S41      S        0.32916    0.91477    0.13358    1.000
    Mo42     Mo       0.66251    0.83140    0.06443    1.000
    S43      S        0.57909    0.91480    0.99561    1.000
    S44      S        0.57933    0.91471    0.13355    1.000
    Mo45     Mo       0.91250    0.83133    0.06442    1.000
    S46      S        0.82923    0.91486    0.99557    1.000
    S47      S        0.82910    0.91449    0.13352    1.000
    C48      C        0.75689    0.65500    0.28985    1.000
    H49      H        0.83521    0.65157    0.27667    1.000
    H50      H        0.77017    0.68657    0.33481    1.000
    H51      H        0.75139    0.72090    0.26294    1.000
    C52      C        0.64623    0.53529    0.28456    1.000
    C53      C        0.65218    0.43117    0.28412    1.000
    H54      H        0.73755    0.43664    0.28605    1.000
    C55      C        0.54968    0.32066    0.28091    1.000
    H56      H        0.55630    0.24144    0.28065    1.000
    C57      C        0.43919    0.31249    0.27776    1.000
    H58      H        0.35982    0.22705    0.27524    1.000
    C59      C        0.53464    0.52580    0.28110    1.000
    H60      H        0.52806    0.60515    0.28111    1.000
    C61      C        0.43201    0.41558    0.27773    1.000
    H62      H        0.34681    0.41010    0.27509    1.000
