# CIF file generated by openbabel 3.1.0, see https://openbabel.org
data_I
_chemical_name_common ''
_cell_length_a 13.105
_cell_length_b 13.105
_cell_length_c 23.0122
_cell_angle_alpha 90
_cell_angle_beta 90
_cell_angle_gamma 120
loop_
    _atom_site_label
    _atom_site_type_symbol
    _atom_site_fract_x
    _atom_site_fract_y
    _atom_site_fract_z
    _atom_site_occupancy
    Mo0      Mo       0.16622    0.08258    0.06403    1.000
    S1       S        0.08280    0.16569    0.99499    1.000
    S2       S        0.08298    0.16608    0.13293    1.000
    Mo3      Mo       0.41615    0.08258    0.06403    1.000
    S4       S        0.33271    0.16564    0.99497    1.000
    S5       S        0.33305    0.16631    0.13297    1.000
    Mo6      Mo       0.66614    0.08253    0.06394    1.000
    S7       S        0.58268    0.16570    0.99498    1.000
    S8       S        0.58288    0.16607    0.13292    1.000
    Mo9      Mo       0.91617    0.08252    0.06396    1.000
    S10      S        0.83287    0.16592    0.99503    1.000
    S11      S        0.83279    0.16580    0.13294    1.000
    Mo12     Mo       0.16623    0.33255    0.06376    1.000
    S13      S        0.08272    0.41592    0.99501    1.000
    S14      S        0.08303    0.41585    0.13292    1.000
    Mo15     Mo       0.41620    0.33261    0.06362    1.000
    S16      S        0.33269    0.41570    0.99454    1.000
    S17      S        0.33299    0.41604    0.13245    1.000
    Mo18     Mo       0.66611    0.33255    0.06375    1.000
    S19      S        0.58281    0.41571    0.99454    1.000
    S20      S        0.58285    0.41603    0.13246    1.000
    Mo21     Mo       0.91617    0.33255    0.06401    1.000
    S22      S        0.83300    0.41593    0.99501    1.000
    S23      S        0.83261    0.41584    0.13292    1.000
    Mo24     Mo       0.16620    0.58254    0.06398    1.000
    S25      S        0.08285    0.66591    0.99508    1.000
    S26      S        0.08281    0.66581    0.13298    1.000
    Mo27     Mo       0.41606    0.58242    0.06347    1.000
    S28      S        0.33260    0.66599    0.99484    1.000
    S29      S        0.33307    0.66570    0.13287    1.000
    Mo30     Mo       0.66616    0.58242    0.06347    1.000
    S31      S        0.58285    0.66590    0.99446    1.000
    S32      S        0.58252    0.66524    0.13221    1.000
    Mo33     Mo       0.91614    0.58254    0.06398    1.000
    S34      S        0.83320    0.66601    0.99485    1.000
    S35      S        0.83242    0.66569    0.13287    1.000
    Mo36     Mo       0.16616    0.83253    0.06405    1.000
    S37      S        0.08294    0.91592    0.99509    1.000
    S38      S        0.08274    0.91584    0.13298    1.000
    Mo39     Mo       0.41612    0.83247    0.06392    1.000
    S40      S        0.33276    0.91592    0.99508    1.000
    S41      S        0.33290    0.91584    0.13297    1.000
    Mo42     Mo       0.66609    0.83238    0.06367    1.000
    S43      S        0.58275    0.91594    0.99493    1.000
    S44      S        0.58283    0.91566    0.13283    1.000
    Mo45     Mo       0.91614    0.83247    0.06393    1.000
    S46      S        0.83299    0.91594    0.99494    1.000
    S47      S        0.83259    0.91565    0.13285    1.000
    C48      C        0.62966    0.76496    0.28618    1.000
    H49      H        0.71459    0.80027    0.30814    1.000
    H50      H        0.57893    0.79939    0.30778    1.000
    H51      H        0.64739    0.80004    0.24180    1.000
    C52      C        0.56356    0.63133    0.28594    1.000
    C53      C        0.62467    0.56860    0.28544    1.000
    H54      H        0.72032    0.61665    0.28579    1.000
    C55      C        0.56406    0.44526    0.28472    1.000
    H56      H        0.61299    0.39865    0.28442    1.000
    C57      C        0.44075    0.38216    0.28439    1.000
    H58      H        0.39366    0.28665    0.28370    1.000
    C59      C        0.43978    0.56691    0.28546    1.000
    H60      H        0.39078    0.61355    0.28583    1.000
    C61      C        0.37884    0.44357    0.28473    1.000
    H62      H        0.28329    0.39557    0.28446    1.000
