# CIF file generated by openbabel 3.1.0, see https://openbabel.org
data_I
_chemical_name_common ''
_cell_length_a 13.105
_cell_length_b 13.105
_cell_length_c 23.0122
_cell_angle_alpha 90
_cell_angle_beta 90
_cell_angle_gamma 120
loop_
    _atom_site_label
    _atom_site_type_symbol
    _atom_site_fract_x
    _atom_site_fract_y
    _atom_site_fract_z
    _atom_site_occupancy
    Mo0      Mo       0.17926    0.10059    0.06611    1.000
    S1       S        0.09614    0.18400    0.99706    1.000
    S2       S        0.09612    0.18429    0.13515    1.000
    Mo3      Mo       0.42913    0.10056    0.06588    1.000
    S4       S        0.34564    0.18365    0.99689    1.000
    S5       S        0.34629    0.18442    0.13496    1.000
    Mo6      Mo       0.67918    0.10058    0.06573    1.000
    S7       S        0.59564    0.18371    0.99685    1.000
    S8       S        0.59592    0.18393    0.13471    1.000
    Mo9      Mo       0.92933    0.10073    0.06593    1.000
    S10      S        0.84584    0.18374    0.99687    1.000
    S11      S        0.84559    0.18374    0.13481    1.000
    Mo12     Mo       0.17950    0.35070    0.06587    1.000
    S13      S        0.09584    0.43374    0.99694    1.000
    S14      S        0.09588    0.43374    0.13492    1.000
    Mo15     Mo       0.42933    0.35063    0.06546    1.000
    S16      S        0.34559    0.43355    0.99645    1.000
    S17      S        0.34695    0.43469    0.13402    1.000
    Mo18     Mo       0.67912    0.35043    0.06564    1.000
    S19      S        0.59614    0.43392    0.99658    1.000
    S20      S        0.59578    0.43384    0.13452    1.000
    Mo21     Mo       0.92909    0.35033    0.06583    1.000
    S22      S        0.84584    0.43375    0.99678    1.000
    S23      S        0.84559    0.43376    0.13470    1.000
    Mo24     Mo       0.17902    0.60053    0.06582    1.000
    S25      S        0.09567    0.68382    0.99686    1.000
    S26      S        0.09556    0.68379    0.13473    1.000
    Mo27     Mo       0.42909    0.60077    0.06510    1.000
    S28      S        0.34533    0.68414    0.99648    1.000
    S29      S        0.34617    0.68409    0.13445    1.000
    Mo30     Mo       0.67920    0.60073    0.06552    1.000
    S31      S        0.59615    0.68435    0.99632    1.000
    S32      S        0.59541    0.68436    0.13406    1.000
    Mo33     Mo       0.92904    0.60042    0.06571    1.000
    S34      S        0.84595    0.68393    0.99672    1.000
    S35      S        0.84576    0.68395    0.13451    1.000
    Mo36     Mo       0.17906    0.85050    0.06581    1.000
    S37      S        0.09610    0.93412    0.99693    1.000
    S38      S        0.09565    0.93358    0.13478    1.000
    Mo39     Mo       0.42914    0.85070    0.06552    1.000
    S40      S        0.34556    0.93399    0.99679    1.000
    S41      S        0.34575    0.93366    0.13477    1.000
    Mo42     Mo       0.67932    0.85093    0.06533    1.000
    S43      S        0.59587    0.93425    0.99656    1.000
    S44      S        0.59585    0.93378    0.13446    1.000
    Mo45     Mo       0.92929    0.85064    0.06566    1.000
    S46      S        0.84636    0.93431    0.99668    1.000
    S47      S        0.84561    0.93358    0.13465    1.000
    C48      C        0.62075    0.56773    0.28355    1.000
    H49      H        0.65088    0.50409    0.28943    1.000
    H50      H        0.65595    0.63094    0.31948    1.000
    H51      H        0.66065    0.61648    0.24341    1.000
    C52      C        0.48705    0.50563    0.28077    1.000
    C53      C        0.42072    0.38204    0.28205    1.000
    H54      H        0.46622    0.33212    0.28539    1.000
    C55      C        0.29748    0.32245    0.27942    1.000
    H56      H        0.24896    0.22690    0.28027    1.000
    C57      C        0.23783    0.38586    0.27566    1.000
    H58      H        0.14246    0.33983    0.27346    1.000
    C59      C        0.42585    0.56841    0.27665    1.000
    H60      H        0.47490    0.66404    0.27546    1.000
    C61      C        0.30250    0.50936    0.27439    1.000
    H62      H        0.25746    0.55985    0.27146    1.000
