# CIF file generated by openbabel 3.1.0, see https://openbabel.org
data_I
_chemical_name_common ''
_cell_length_a 13.105
_cell_length_b 13.105
_cell_length_c 23.0122
_cell_angle_alpha 90
_cell_angle_beta 90
_cell_angle_gamma 120
loop_
    _atom_site_label
    _atom_site_type_symbol
    _atom_site_fract_x
    _atom_site_fract_y
    _atom_site_fract_z
    _atom_site_occupancy
    Mo0      Mo       0.16763    0.08494    0.06279    1.000
    S1       S        0.08422    0.16811    0.99377    1.000
    S2       S        0.08448    0.16852    0.13173    1.000
    Mo3      Mo       0.41759    0.08491    0.06281    1.000
    S4       S        0.33419    0.16810    0.99377    1.000
    S5       S        0.33435    0.16852    0.13173    1.000
    Mo6      Mo       0.66771    0.08511    0.06257    1.000
    S7       S        0.58419    0.16841    0.99380    1.000
    S8       S        0.58432    0.16821    0.13170    1.000
    Mo9      Mo       0.91763    0.08492    0.06280    1.000
    S10      S        0.83453    0.16842    0.99379    1.000
    S11      S        0.83420    0.16822    0.13170    1.000
    Mo12     Mo       0.16765    0.33497    0.06257    1.000
    S13      S        0.08428    0.41842    0.99376    1.000
    S14      S        0.08461    0.41833    0.13180    1.000
    Mo15     Mo       0.41762    0.33497    0.06256    1.000
    S16      S        0.33423    0.41816    0.99347    1.000
    S17      S        0.33432    0.41831    0.13124    1.000
    Mo18     Mo       0.66758    0.33502    0.06281    1.000
    S19      S        0.58444    0.41841    0.99376    1.000
    S20      S        0.58401    0.41833    0.13179    1.000
    Mo21     Mo       0.91774    0.33502    0.06281    1.000
    S22      S        0.83430    0.41830    0.99391    1.000
    S23      S        0.83426    0.41822    0.13181    1.000
    Mo24     Mo       0.16777    0.58498    0.06279    1.000
    S25      S        0.08423    0.66830    0.99395    1.000
    S26      S        0.08444    0.66818    0.13185    1.000
    Mo27     Mo       0.41767    0.58501    0.06250    1.000
    S28      S        0.33408    0.66820    0.99359    1.000
    S29      S        0.33459    0.66838    0.13160    1.000
    Mo30     Mo       0.66752    0.58498    0.06278    1.000
    S31      S        0.58443    0.66820    0.99358    1.000
    S32      S        0.58414    0.66839    0.13159    1.000
    Mo33     Mo       0.91761    0.58491    0.06290    1.000
    S34      S        0.83438    0.66830    0.99394    1.000
    S35      S        0.83406    0.66819    0.13184    1.000
    Mo36     Mo       0.16767    0.83492    0.06290    1.000
    S37      S        0.08419    0.91806    0.99394    1.000
    S38      S        0.08432    0.91833    0.13180    1.000
    Mo39     Mo       0.41749    0.83483    0.06254    1.000
    S40      S        0.33414    0.91832    0.99380    1.000
    S41      S        0.33448    0.91814    0.13181    1.000
    Mo42     Mo       0.66768    0.83484    0.06252    1.000
    S43      S        0.58431    0.91830    0.99359    1.000
    S44      S        0.58435    0.91831    0.13122    1.000
    Mo45     Mo       0.91757    0.83493    0.06289    1.000
    S46      S        0.83452    0.91834    0.99379    1.000
    S47      S        0.83399    0.91815    0.13179    1.000
    C48      C        0.53689    0.83437    0.29506    1.000
    H49      H        0.62149    0.86804    0.31714    1.000
    H50      H        0.48541    0.86620    0.31814    1.000
    H51      H        0.55510    0.87359    0.25156    1.000
    C52      C        0.47131    0.70095    0.29153    1.000
    C53      C        0.53229    0.63819    0.28919    1.000
    H54      H        0.62788    0.68590    0.29098    1.000
    C55      C        0.47158    0.51516    0.28489    1.000
    H56      H        0.52035    0.46844    0.28312    1.000
    C57      C        0.34834    0.45264    0.28285    1.000
    H58      H        0.30119    0.35739    0.27958    1.000
    C59      C        0.34760    0.63695    0.28936    1.000
    H60      H        0.29885    0.68376    0.29132    1.000
    C61      C        0.28642    0.51397    0.28504    1.000
    H62      H        0.19093    0.46631    0.28341    1.000
