# CIF file generated by openbabel 3.1.0, see https://openbabel.org
data_I
_chemical_name_common ''
_cell_length_a 13.105
_cell_length_b 13.105
_cell_length_c 23.0122
_cell_angle_alpha 90
_cell_angle_beta 90
_cell_angle_gamma 120
loop_
    _atom_site_label
    _atom_site_type_symbol
    _atom_site_fract_x
    _atom_site_fract_y
    _atom_site_fract_z
    _atom_site_occupancy
    Mo0      Mo       0.16661    0.08346    0.06806    1.000
    S1       S        0.08316    0.16661    0.99905    1.000
    S2       S        0.08338    0.16698    0.13701    1.000
    Mo3      Mo       0.41656    0.08345    0.06802    1.000
    S4       S        0.33316    0.16663    0.99900    1.000
    S5       S        0.33334    0.16698    0.13702    1.000
    Mo6      Mo       0.66656    0.08339    0.06801    1.000
    S7       S        0.58325    0.16677    0.99909    1.000
    S8       S        0.58318    0.16666    0.13703    1.000
    Mo9      Mo       0.91655    0.08338    0.06806    1.000
    S10      S        0.83328    0.16678    0.99911    1.000
    S11      S        0.83321    0.16671    0.13704    1.000
    Mo12     Mo       0.16663    0.33347    0.06785    1.000
    S13      S        0.08311    0.41672    0.99897    1.000
    S14      S        0.08355    0.41687    0.13704    1.000
    Mo15     Mo       0.41653    0.33343    0.06784    1.000
    S16      S        0.33316    0.41658    0.99875    1.000
    S17      S        0.33327    0.41679    0.13654    1.000
    Mo18     Mo       0.66653    0.33342    0.06807    1.000
    S19      S        0.58333    0.41673    0.99898    1.000
    S20      S        0.58304    0.41686    0.13701    1.000
    Mo21     Mo       0.91663    0.33344    0.06808    1.000
    S22      S        0.83326    0.41678    0.99916    1.000
    S23      S        0.83320    0.41670    0.13708    1.000
    Mo24     Mo       0.16658    0.58339    0.06791    1.000
    S25      S        0.08313    0.66674    0.99908    1.000
    S26      S        0.08345    0.66670    0.13710    1.000
    Mo27     Mo       0.41663    0.58340    0.06767    1.000
    S28      S        0.33310    0.66677    0.99881    1.000
    S29      S        0.33329    0.66659    0.13657    1.000
    Mo30     Mo       0.66653    0.58345    0.06791    1.000
    S31      S        0.58343    0.66679    0.99876    1.000
    S32      S        0.58317    0.66681    0.13662    1.000
    Mo33     Mo       0.91659    0.58342    0.06814    1.000
    S34      S        0.83337    0.66676    0.99910    1.000
    S35      S        0.83300    0.66666    0.13708    1.000
    Mo36     Mo       0.16655    0.83335    0.06806    1.000
    S37      S        0.08319    0.91671    0.99914    1.000
    S38      S        0.08325    0.91675    0.13702    1.000
    Mo39     Mo       0.41654    0.83339    0.06783    1.000
    S40      S        0.33312    0.91681    0.99901    1.000
    S41      S        0.33327    0.91672    0.13693    1.000
    Mo42     Mo       0.66659    0.83333    0.06780    1.000
    S43      S        0.58330    0.91685    0.99892    1.000
    S44      S        0.58324    0.91649    0.13689    1.000
    Mo45     Mo       0.91650    0.83337    0.06809    1.000
    S46      S        0.83342    0.91681    0.99901    1.000
    S47      S        0.83298    0.91659    0.13703    1.000
    C48      C        0.41274    0.80316    0.28987    1.000
    H49      H        0.49132    0.87305    0.31102    1.000
    H50      H        0.33517    0.79541    0.31172    1.000
    H51      H        0.41199    0.83184    0.24520    1.000
    C52      C        0.41231    0.68721    0.29046    1.000
    C53      C        0.51828    0.68485    0.29027    1.000
    H54      H        0.60156    0.76723    0.29084    1.000
    C55      C        0.51806    0.57786    0.28946    1.000
    H56      H        0.60091    0.57806    0.28932    1.000
    C57      C        0.41142    0.47111    0.28879    1.000
    H58      H        0.41104    0.38822    0.28790    1.000
    C59      C        0.30575    0.57916    0.28983    1.000
    H60      H        0.22282    0.57899    0.29001    1.000
    C61      C        0.30508    0.47211    0.28905    1.000
    H62      H        0.22190    0.38981    0.28857    1.000
