# CIF file generated by openbabel 3.1.0, see https://openbabel.org
data_I
_chemical_name_common ''
_cell_length_a 13.105
_cell_length_b 13.105
_cell_length_c 23.0122
_cell_angle_alpha 90
_cell_angle_beta 90
_cell_angle_gamma 120
loop_
    _atom_site_label
    _atom_site_type_symbol
    _atom_site_fract_x
    _atom_site_fract_y
    _atom_site_fract_z
    _atom_site_occupancy
    Mo0      Mo       0.16631    0.08288    0.06542    1.000
    S1       S        0.08291    0.16615    0.99648    1.000
    S2       S        0.08300    0.16619    0.13443    1.000
    Mo3      Mo       0.41628    0.08291    0.06550    1.000
    S4       S        0.33293    0.16607    0.99643    1.000
    S5       S        0.33300    0.16642    0.13439    1.000
    Mo6      Mo       0.66621    0.08289    0.06542    1.000
    S7       S        0.58278    0.16607    0.99644    1.000
    S8       S        0.58306    0.16642    0.13440    1.000
    Mo9      Mo       0.91622    0.08280    0.06547    1.000
    S10      S        0.83288    0.16615    0.99648    1.000
    S11      S        0.83284    0.16619    0.13443    1.000
    Mo12     Mo       0.16624    0.33282    0.06541    1.000
    S13      S        0.08292    0.41621    0.99650    1.000
    S14      S        0.08286    0.41607    0.13446    1.000
    Mo15     Mo       0.41633    0.33291    0.06526    1.000
    S16      S        0.33277    0.41615    0.99635    1.000
    S17      S        0.33297    0.41616    0.13436    1.000
    Mo18     Mo       0.66622    0.33292    0.06527    1.000
    S19      S        0.58288    0.41611    0.99614    1.000
    S20      S        0.58300    0.41639    0.13382    1.000
    Mo21     Mo       0.91622    0.33282    0.06542    1.000
    S22      S        0.83302    0.41616    0.99636    1.000
    S23      S        0.83282    0.41616    0.13437    1.000
    Mo24     Mo       0.16623    0.58282    0.06550    1.000
    S25      S        0.08307    0.66624    0.99649    1.000
    S26      S        0.08285    0.66610    0.13446    1.000
    Mo27     Mo       0.41605    0.58275    0.06532    1.000
    S28      S        0.33280    0.66625    0.99648    1.000
    S29      S        0.33290    0.66609    0.13445    1.000
    Mo30     Mo       0.66618    0.58273    0.06512    1.000
    S31      S        0.58274    0.66621    0.99630    1.000
    S32      S        0.58253    0.66583    0.13415    1.000
    Mo33     Mo       0.91633    0.58276    0.06533    1.000
    S34      S        0.83311    0.66621    0.99631    1.000
    S35      S        0.83291    0.66584    0.13417    1.000
    Mo36     Mo       0.16626    0.83286    0.06553    1.000
    S37      S        0.08299    0.91617    0.99650    1.000
    S38      S        0.08287    0.91625    0.13447    1.000
    Mo39     Mo       0.41625    0.83286    0.06552    1.000
    S40      S        0.33294    0.91623    0.99656    1.000
    S41      S        0.33295    0.91624    0.13452    1.000
    Mo42     Mo       0.66618    0.83279    0.06539    1.000
    S43      S        0.58283    0.91618    0.99650    1.000
    S44      S        0.58302    0.91625    0.13447    1.000
    Mo45     Mo       0.91625    0.83279    0.06540    1.000
    S46      S        0.83289    0.91614    0.99649    1.000
    S47      S        0.83282    0.91600    0.13442    1.000
    C48      C        0.70728    0.66772    0.28560    1.000
    H49      H        0.79080    0.70070    0.30864    1.000
    H50      H        0.65539    0.70027    0.30771    1.000
    H51      H        0.72771    0.70700    0.24211    1.000
    C52      C        0.64090    0.53426    0.28232    1.000
    C53      C        0.70164    0.47120    0.28046    1.000
    H54      H        0.79724    0.51889    0.28189    1.000
    C55      C        0.64076    0.34806    0.27708    1.000
    H56      H        0.68942    0.30124    0.27559    1.000
    C57      C        0.51749    0.28544    0.27554    1.000
    H58      H        0.47017    0.19006    0.27320    1.000
    C59      C        0.51714    0.47027    0.28037    1.000
    H60      H        0.46844    0.51716    0.28174    1.000
    C61      C        0.45589    0.34713    0.27700    1.000
    H62      H        0.36041    0.29952    0.27546    1.000
