# CIF file generated by openbabel 3.1.0, see https://openbabel.org
data_I
_chemical_name_common ''
_cell_length_a 13.105
_cell_length_b 13.105
_cell_length_c 23.0122
_cell_angle_alpha 90
_cell_angle_beta 90
_cell_angle_gamma 120
loop_
    _atom_site_label
    _atom_site_type_symbol
    _atom_site_fract_x
    _atom_site_fract_y
    _atom_site_fract_z
    _atom_site_occupancy
    Mo0      Mo       0.16677    0.06965    0.06577    1.000
    S1       S        0.08336    0.15278    0.99674    1.000
    S2       S        0.08349    0.15332    0.13465    1.000
    Mo3      Mo       0.41669    0.06958    0.06569    1.000
    S4       S        0.33317    0.15261    0.99665    1.000
    S5       S        0.33367    0.15338    0.13458    1.000
    Mo6      Mo       0.66678    0.06961    0.06564    1.000
    S7       S        0.58329    0.15281    0.99673    1.000
    S8       S        0.58344    0.15301    0.13456    1.000
    Mo9      Mo       0.91669    0.06961    0.06571    1.000
    S10      S        0.83345    0.15285    0.99669    1.000
    S11      S        0.83349    0.15310    0.13463    1.000
    Mo12     Mo       0.16678    0.31972    0.06542    1.000
    S13      S        0.08313    0.40272    0.99642    1.000
    S14      S        0.08344    0.40308    0.13432    1.000
    Mo15     Mo       0.41672    0.31964    0.06527    1.000
    S16      S        0.33309    0.40247    0.99618    1.000
    S17      S        0.33370    0.40321    0.13408    1.000
    Mo18     Mo       0.66675    0.31968    0.06556    1.000
    S19      S        0.58357    0.40288    0.99640    1.000
    S20      S        0.58334    0.40329    0.13438    1.000
    Mo21     Mo       0.91676    0.31961    0.06549    1.000
    S22      S        0.83346    0.40299    0.99660    1.000
    S23      S        0.83354    0.40310    0.13449    1.000
    Mo24     Mo       0.16688    0.56966    0.06531    1.000
    S25      S        0.08350    0.65329    0.99661    1.000
    S26      S        0.08347    0.65269    0.13459    1.000
    Mo27     Mo       0.41656    0.56951    0.06490    1.000
    S28      S        0.33330    0.65317    0.99604    1.000
    S29      S        0.33376    0.65289    0.13379    1.000
    Mo30     Mo       0.66674    0.56970    0.06523    1.000
    S31      S        0.58359    0.65311    0.99615    1.000
    S32      S        0.58280    0.65241    0.13397    1.000
    Mo33     Mo       0.91678    0.56970    0.06553    1.000
    S34      S        0.83372    0.65327    0.99653    1.000
    S35      S        0.83309    0.65276    0.13449    1.000
    Mo36     Mo       0.16677    0.81961    0.06579    1.000
    S37      S        0.08351    0.90297    0.99686    1.000
    S38      S        0.08344    0.90295    0.13473    1.000
    Mo39     Mo       0.41672    0.81954    0.06531    1.000
    S40      S        0.33315    0.90304    0.99669    1.000
    S41      S        0.33361    0.90274    0.13468    1.000
    Mo42     Mo       0.66658    0.81951    0.06544    1.000
    S43      S        0.58367    0.90325    0.99651    1.000
    S44      S        0.58315    0.90269    0.13455    1.000
    Mo45     Mo       0.91677    0.81966    0.06572    1.000
    S46      S        0.83350    0.90299    0.99671    1.000
    S47      S        0.83302    0.90279    0.13463    1.000
    C48      C        0.58309    0.75133    0.28711    1.000
    H49      H        0.61931    0.70138    0.26638    1.000
    H50      H        0.60920    0.76281    0.33283    1.000
    H51      H        0.62464    0.83885    0.26744    1.000
    C52      C        0.44980    0.68815    0.28140    1.000
    C53      C        0.38395    0.56471    0.27671    1.000
    H54      H        0.42896    0.51415    0.27579    1.000
    C55      C        0.26083    0.50564    0.27329    1.000
    H56      H        0.21190    0.41033    0.26966    1.000
    C57      C        0.20111    0.56917    0.27441    1.000
    H58      H        0.10579    0.52324    0.27161    1.000
    C59      C        0.38851    0.75086    0.28181    1.000
    H60      H        0.43707    0.84629    0.28483    1.000
    C61      C        0.26539    0.69214    0.27845    1.000
    H62      H        0.21965    0.74195    0.27874    1.000
