# CIF file generated by openbabel 3.1.0, see https://openbabel.org
data_I
_chemical_name_common ''
_cell_length_a 13.105
_cell_length_b 13.105
_cell_length_c 23.0122
_cell_angle_alpha 90
_cell_angle_beta 90
_cell_angle_gamma 120
loop_
    _atom_site_label
    _atom_site_type_symbol
    _atom_site_fract_x
    _atom_site_fract_y
    _atom_site_fract_z
    _atom_site_occupancy
    Mo0      Mo       0.16576    0.08497    0.06398    1.000
    S1       S        0.08229    0.16816    0.99504    1.000
    S2       S        0.08269    0.16849    0.13301    1.000
    Mo3      Mo       0.41565    0.08495    0.06407    1.000
    S4       S        0.33234    0.16810    0.99495    1.000
    S5       S        0.33237    0.16841    0.13290    1.000
    Mo6      Mo       0.66566    0.08503    0.06417    1.000
    S7       S        0.58232    0.16828    0.99515    1.000
    S8       S        0.58221    0.16847    0.13317    1.000
    Mo9      Mo       0.91571    0.08500    0.06412    1.000
    S10      S        0.83233    0.16836    0.99521    1.000
    S11      S        0.83235    0.16834    0.13313    1.000
    Mo12     Mo       0.16565    0.33497    0.06383    1.000
    S13      S        0.08219    0.41841    0.99510    1.000
    S14      S        0.08247    0.41815    0.13309    1.000
    Mo15     Mo       0.41559    0.33494    0.06380    1.000
    S16      S        0.33230    0.41841    0.99482    1.000
    S17      S        0.33210    0.41809    0.13261    1.000
    Mo18     Mo       0.66553    0.33500    0.06405    1.000
    S19      S        0.58241    0.41822    0.99486    1.000
    S20      S        0.58200    0.41832    0.13274    1.000
    Mo21     Mo       0.91562    0.33498    0.06418    1.000
    S22      S        0.83231    0.41831    0.99519    1.000
    S23      S        0.83205    0.41826    0.13320    1.000
    Mo24     Mo       0.16567    0.58492    0.06420    1.000
    S25      S        0.08239    0.66828    0.99524    1.000
    S26      S        0.08227    0.66824    0.13317    1.000
    Mo27     Mo       0.41565    0.58490    0.06397    1.000
    S28      S        0.33227    0.66832    0.99518    1.000
    S29      S        0.33245    0.66807    0.13318    1.000
    Mo30     Mo       0.66551    0.58490    0.06383    1.000
    S31      S        0.58226    0.66835    0.99499    1.000
    S32      S        0.58233    0.66809    0.13302    1.000
    Mo33     Mo       0.91565    0.58496    0.06414    1.000
    S34      S        0.83243    0.66826    0.99499    1.000
    S35      S        0.83218    0.66859    0.13274    1.000
    Mo36     Mo       0.16569    0.83494    0.06418    1.000
    S37      S        0.08252    0.91828    0.99506    1.000
    S38      S        0.08234    0.91842    0.13304    1.000
    Mo39     Mo       0.41571    0.83493    0.06420    1.000
    S40      S        0.33235    0.91818    0.99520    1.000
    S41      S        0.33240    0.91840    0.13314    1.000
    Mo42     Mo       0.66565    0.83492    0.06407    1.000
    S43      S        0.58232    0.91834    0.99520    1.000
    S44      S        0.58241    0.91827    0.13313    1.000
    Mo45     Mo       0.91575    0.83513    0.06392    1.000
    S46      S        0.83230    0.91839    0.99508    1.000
    S47      S        0.83238    0.91821    0.13304    1.000
    C48      C        0.74517    0.53485    0.28846    1.000
    H49      H        0.77806    0.48223    0.30946    1.000
    H50      H        0.77926    0.61788    0.31209    1.000
    H51      H        0.78320    0.55639    0.24472    1.000
    C52      C        0.61167    0.46912    0.28627    1.000
    C53      C        0.54722    0.34541    0.28551    1.000
    H54      H        0.59383    0.29644    0.28701    1.000
    C55      C        0.42397    0.28450    0.28297    1.000
    H56      H        0.37593    0.18899    0.28266    1.000
    C57      C        0.36285    0.34659    0.28102    1.000
    H58      H        0.26742    0.29959    0.27920    1.000
    C59      C        0.54914    0.53033    0.28409    1.000
    H60      H        0.59712    0.62595    0.28467    1.000
    C61      C        0.42600    0.46988    0.28143    1.000
    H62      H        0.37953    0.51885    0.27973    1.000
