# CIF file generated by openbabel 3.1.0, see https://openbabel.org
data_I
_chemical_name_common ''
_cell_length_a 13.105
_cell_length_b 13.105
_cell_length_c 23.0122
_cell_angle_alpha 90
_cell_angle_beta 90
_cell_angle_gamma 120
loop_
    _atom_site_label
    _atom_site_type_symbol
    _atom_site_fract_x
    _atom_site_fract_y
    _atom_site_fract_z
    _atom_site_occupancy
    Mo0      Mo       0.16671    0.08383    0.06385    1.000
    S1       S        0.08316    0.16698    0.99497    1.000
    S2       S        0.08347    0.16714    0.13297    1.000
    Mo3      Mo       0.41662    0.08383    0.06376    1.000
    S4       S        0.33311    0.16682    0.99460    1.000
    S5       S        0.33359    0.16752    0.13233    1.000
    Mo6      Mo       0.66661    0.08370    0.06400    1.000
    S7       S        0.58336    0.16687    0.99487    1.000
    S8       S        0.58316    0.16716    0.13292    1.000
    Mo9      Mo       0.91664    0.08371    0.06402    1.000
    S10      S        0.83336    0.16709    0.99508    1.000
    S11      S        0.83331    0.16706    0.13302    1.000
    Mo12     Mo       0.16674    0.33376    0.06387    1.000
    S13      S        0.08323    0.41714    0.99509    1.000
    S14      S        0.08352    0.41693    0.13304    1.000
    Mo15     Mo       0.41661    0.33377    0.06342    1.000
    S16      S        0.33312    0.41719    0.99462    1.000
    S17      S        0.33368    0.41726    0.13251    1.000
    Mo18     Mo       0.66665    0.33361    0.06375    1.000
    S19      S        0.58358    0.41712    0.99462    1.000
    S20      S        0.58304    0.41663    0.13240    1.000
    Mo21     Mo       0.91666    0.33371    0.06409    1.000
    S22      S        0.83360    0.41715    0.99504    1.000
    S23      S        0.83297    0.41687    0.13298    1.000
    Mo24     Mo       0.16663    0.58373    0.06410    1.000
    S25      S        0.08332    0.66712    0.99520    1.000
    S26      S        0.08329    0.66707    0.13308    1.000
    Mo27     Mo       0.41659    0.58375    0.06366    1.000
    S28      S        0.33308    0.66721    0.99497    1.000
    S29      S        0.33342    0.66689    0.13295    1.000
    Mo30     Mo       0.66665    0.58365    0.06374    1.000
    S31      S        0.58347    0.66730    0.99486    1.000
    S32      S        0.58311    0.66680    0.13277    1.000
    Mo33     Mo       0.91662    0.58369    0.06409    1.000
    S34      S        0.83359    0.66717    0.99502    1.000
    S35      S        0.83298    0.66680    0.13300    1.000
    Mo36     Mo       0.16664    0.83379    0.06416    1.000
    S37      S        0.08324    0.91692    0.99510    1.000
    S38      S        0.08346    0.91741    0.13311    1.000
    Mo39     Mo       0.41663    0.83376    0.06405    1.000
    S40      S        0.33312    0.91688    0.99506    1.000
    S41      S        0.33348    0.91744    0.13305    1.000
    Mo42     Mo       0.66666    0.83375    0.06400    1.000
    S43      S        0.58329    0.91702    0.99508    1.000
    S44      S        0.58329    0.91703    0.13299    1.000
    Mo45     Mo       0.91663    0.83371    0.06410    1.000
    S46      S        0.83334    0.91703    0.99511    1.000
    S47      S        0.83327    0.91702    0.13303    1.000
    C48      C        0.58408    0.50015    0.28736    1.000
    H49      H        0.65695    0.48969    0.30309    1.000
    H50      H        0.57692    0.56377    0.31525    1.000
    H51      H        0.60773    0.53904    0.24384    1.000
    C52      C        0.46957    0.38323    0.28606    1.000
    C53      C        0.46918    0.27579    0.28533    1.000
    H54      H        0.55226    0.27633    0.28616    1.000
    C55      C        0.36319    0.16814    0.28402    1.000
    H56      H        0.36488    0.08625    0.28355    1.000
    C57      C        0.25546    0.16613    0.28296    1.000
    H58      H        0.17334    0.08289    0.28170    1.000
    C59      C        0.36065    0.37983    0.28492    1.000
    H60      H        0.35903    0.46184    0.28542    1.000
    C61      C        0.25453    0.27247    0.28327    1.000
    H62      H        0.17152    0.27189    0.28239    1.000
