# CIF file generated by openbabel 3.1.0, see https://openbabel.org
data_I
_chemical_name_common ''
_cell_length_a 13.105
_cell_length_b 13.105
_cell_length_c 23.0122
_cell_angle_alpha 90
_cell_angle_beta 90
_cell_angle_gamma 120
loop_
    _atom_site_label
    _atom_site_type_symbol
    _atom_site_fract_x
    _atom_site_fract_y
    _atom_site_fract_z
    _atom_site_occupancy
    Mo0      Mo       0.16685    0.08385    0.06395    1.000
    S1       S        0.08348    0.16701    0.99491    1.000
    S2       S        0.08373    0.16746    0.13288    1.000
    Mo3      Mo       0.41682    0.08383    0.06392    1.000
    S4       S        0.33337    0.16691    0.99489    1.000
    S5       S        0.33368    0.16754    0.13289    1.000
    Mo6      Mo       0.66683    0.08376    0.06389    1.000
    S7       S        0.58343    0.16702    0.99492    1.000
    S8       S        0.58352    0.16722    0.13285    1.000
    Mo9      Mo       0.91686    0.08386    0.06389    1.000
    S10      S        0.83354    0.16718    0.99495    1.000
    S11      S        0.83351    0.16711    0.13287    1.000
    Mo12     Mo       0.16702    0.33391    0.06367    1.000
    S13      S        0.08340    0.41719    0.99488    1.000
    S14      S        0.08380    0.41721    0.13285    1.000
    Mo15     Mo       0.41690    0.33391    0.06358    1.000
    S16      S        0.33333    0.41688    0.99442    1.000
    S17      S        0.33383    0.41752    0.13221    1.000
    Mo18     Mo       0.66681    0.33380    0.06376    1.000
    S19      S        0.58357    0.41701    0.99463    1.000
    S20      S        0.58343    0.41716    0.13263    1.000
    Mo21     Mo       0.91687    0.33380    0.06392    1.000
    S22      S        0.83362    0.41719    0.99493    1.000
    S23      S        0.83338    0.41709    0.13287    1.000
    Mo24     Mo       0.16682    0.58387    0.06382    1.000
    S25      S        0.08340    0.66722    0.99495    1.000
    S26      S        0.08347    0.66709    0.13289    1.000
    Mo27     Mo       0.41658    0.58372    0.06325    1.000
    S28      S        0.33316    0.66732    0.99462    1.000
    S29      S        0.33362    0.66698    0.13267    1.000
    Mo30     Mo       0.66668    0.58364    0.06356    1.000
    S31      S        0.58358    0.66716    0.99441    1.000
    S32      S        0.58270    0.66662    0.13208    1.000
    Mo33     Mo       0.91677    0.58380    0.06392    1.000
    S34      S        0.83365    0.66720    0.99486    1.000
    S35      S        0.83305    0.66694    0.13287    1.000
    Mo36     Mo       0.16678    0.83382    0.06396    1.000
    S37      S        0.08349    0.91716    0.99500    1.000
    S38      S        0.08340    0.91714    0.13292    1.000
    Mo39     Mo       0.41675    0.83376    0.06377    1.000
    S40      S        0.33336    0.91720    0.99494    1.000
    S41      S        0.33356    0.91711    0.13287    1.000
    Mo42     Mo       0.66674    0.83370    0.06357    1.000
    S43      S        0.58343    0.91725    0.99480    1.000
    S44      S        0.58343    0.91680    0.13279    1.000
    Mo45     Mo       0.91675    0.83377    0.06391    1.000
    S46      S        0.83370    0.91724    0.99484    1.000
    S47      S        0.83324    0.91702    0.13277    1.000
    C48      C        0.66503    0.72188    0.28743    1.000
    H49      H        0.73591    0.71066    0.30542    1.000
    H50      H        0.65734    0.78720    0.31368    1.000
    H51      H        0.69218    0.75910    0.24377    1.000
    C52      C        0.54948    0.60582    0.28587    1.000
    C53      C        0.54778    0.49783    0.28501    1.000
    H54      H        0.63044    0.49752    0.28527    1.000
    C55      C        0.44116    0.39066    0.28436    1.000
    H56      H        0.44199    0.30835    0.28381    1.000
    C57      C        0.33400    0.38976    0.28453    1.000
    H58      H        0.25138    0.30695    0.28439    1.000
    C59      C        0.44106    0.60358    0.28507    1.000
    H60      H        0.44028    0.68604    0.28538    1.000
    C61      C        0.33433    0.49678    0.28450    1.000
    H62      H        0.25175    0.49710    0.28408    1.000
