# CIF file generated by openbabel 3.1.0, see https://openbabel.org
data_I
_chemical_name_common ''
_cell_length_a 13.105
_cell_length_b 13.105
_cell_length_c 23.0122
_cell_angle_alpha 90
_cell_angle_beta 90
_cell_angle_gamma 120
loop_
    _atom_site_label
    _atom_site_type_symbol
    _atom_site_fract_x
    _atom_site_fract_y
    _atom_site_fract_z
    _atom_site_occupancy
    Mo0      Mo       0.16536    0.08112    0.06337    1.000
    S1       S        0.08199    0.16444    0.99446    1.000
    S2       S        0.08213    0.16451    0.13237    1.000
    Mo3      Mo       0.41542    0.08126    0.06343    1.000
    S4       S        0.33195    0.16429    0.99434    1.000
    S5       S        0.33209    0.16476    0.13230    1.000
    Mo6      Mo       0.66534    0.08113    0.06338    1.000
    S7       S        0.58193    0.16430    0.99435    1.000
    S8       S        0.58224    0.16476    0.13231    1.000
    Mo9      Mo       0.91535    0.08111    0.06344    1.000
    S10      S        0.83203    0.16444    0.99447    1.000
    S11      S        0.83197    0.16450    0.13238    1.000
    Mo12     Mo       0.16538    0.33115    0.06336    1.000
    S13      S        0.08209    0.41460    0.99447    1.000
    S14      S        0.08197    0.41435    0.13240    1.000
    Mo15     Mo       0.41544    0.33123    0.06312    1.000
    S16      S        0.33192    0.41457    0.99430    1.000
    S17      S        0.33214    0.41438    0.13230    1.000
    Mo18     Mo       0.66537    0.33123    0.06313    1.000
    S19      S        0.58202    0.41445    0.99397    1.000
    S20      S        0.58223    0.41490    0.13157    1.000
    Mo21     Mo       0.91535    0.33115    0.06337    1.000
    S22      S        0.83223    0.41457    0.99431    1.000
    S23      S        0.83181    0.41438    0.13232    1.000
    Mo24     Mo       0.16536    0.58113    0.06354    1.000
    S25      S        0.08220    0.66457    0.99456    1.000
    S26      S        0.08183    0.66437    0.13249    1.000
    Mo27     Mo       0.41532    0.58110    0.06335    1.000
    S28      S        0.33195    0.66458    0.99455    1.000
    S29      S        0.33212    0.66436    0.13248    1.000
    Mo30     Mo       0.66538    0.58119    0.06296    1.000
    S31      S        0.58183    0.66463    0.99425    1.000
    S32      S        0.58203    0.66427    0.13218    1.000
    Mo33     Mo       0.91536    0.58110    0.06336    1.000
    S34      S        0.83239    0.66462    0.99425    1.000
    S35      S        0.83181    0.66426    0.13219    1.000
    Mo36     Mo       0.16536    0.83116    0.06356    1.000
    S37      S        0.08214    0.91442    0.99447    1.000
    S38      S        0.08191    0.91449    0.13244    1.000
    Mo39     Mo       0.41539    0.83116    0.06356    1.000
    S40      S        0.33202    0.91444    0.99461    1.000
    S41      S        0.33215    0.91471    0.13249    1.000
    Mo42     Mo       0.66533    0.83112    0.06334    1.000
    S43      S        0.58188    0.91444    0.99447    1.000
    S44      S        0.58217    0.91449    0.13245    1.000
    Mo45     Mo       0.91538    0.83112    0.06334    1.000
    S46      S        0.83206    0.91452    0.99444    1.000
    S47      S        0.83195    0.91431    0.13238    1.000
    C48      C        0.71142    0.67272    0.28613    1.000
    H49      H        0.66405    0.71240    0.26597    1.000
    H50      H        0.79873    0.71161    0.26629    1.000
    H51      H        0.72376    0.69789    0.33208    1.000
    C52      C        0.64434    0.53969    0.27965    1.000
    C53      C        0.52060    0.47689    0.27717    1.000
    H54      H        0.47272    0.52466    0.27811    1.000
    C55      C        0.45829    0.35379    0.27344    1.000
    H56      H        0.36284    0.30709    0.27140    1.000
    C57      C        0.51888    0.29110    0.27193    1.000
    H58      H        0.47075    0.19580    0.26880    1.000
    C59      C        0.70406    0.47568    0.27737    1.000
    H60      H        0.79968    0.52253    0.27848    1.000
    C61      C        0.64216    0.35258    0.27366    1.000
    H62      H        0.69000    0.30495    0.27178    1.000
