# CIF file generated by openbabel 3.1.0, see https://openbabel.org
data_I
_chemical_name_common ''
_cell_length_a 13.105
_cell_length_b 13.105
_cell_length_c 23.0122
_cell_angle_alpha 90
_cell_angle_beta 90
_cell_angle_gamma 120
loop_
    _atom_site_label
    _atom_site_type_symbol
    _atom_site_fract_x
    _atom_site_fract_y
    _atom_site_fract_z
    _atom_site_occupancy
    Mo0      Mo       0.16635    0.08266    0.06263    1.000
    S1       S        0.08298    0.16601    0.99373    1.000
    S2       S        0.08309    0.16603    0.13167    1.000
    Mo3      Mo       0.41638    0.08274    0.06270    1.000
    S4       S        0.33297    0.16583    0.99361    1.000
    S5       S        0.33312    0.16627    0.13156    1.000
    Mo6      Mo       0.66625    0.08264    0.06267    1.000
    S7       S        0.58290    0.16588    0.99366    1.000
    S8       S        0.58311    0.16624    0.13162    1.000
    Mo9      Mo       0.91632    0.08262    0.06271    1.000
    S10      S        0.83296    0.16596    0.99374    1.000
    S11      S        0.83293    0.16602    0.13166    1.000
    Mo12     Mo       0.16638    0.33267    0.06267    1.000
    S13      S        0.08309    0.41615    0.99379    1.000
    S14      S        0.08292    0.41581    0.13173    1.000
    Mo15     Mo       0.41638    0.33275    0.06242    1.000
    S16      S        0.33287    0.41602    0.99356    1.000
    S17      S        0.33322    0.41595    0.13159    1.000
    Mo18     Mo       0.66621    0.33272    0.06251    1.000
    S19      S        0.58291    0.41584    0.99325    1.000
    S20      S        0.58299    0.41641    0.13107    1.000
    Mo21     Mo       0.91629    0.33269    0.06266    1.000
    S22      S        0.83306    0.41610    0.99365    1.000
    S23      S        0.83270    0.41590    0.13161    1.000
    Mo24     Mo       0.16634    0.58264    0.06288    1.000
    S25      S        0.08309    0.66596    0.99388    1.000
    S26      S        0.08277    0.66586    0.13181    1.000
    Mo27     Mo       0.41626    0.58255    0.06258    1.000
    S28      S        0.33287    0.66609    0.99384    1.000
    S29      S        0.33322    0.66589    0.13181    1.000
    Mo30     Mo       0.66637    0.58260    0.06218    1.000
    S31      S        0.58282    0.66608    0.99345    1.000
    S32      S        0.58315    0.66569    0.13123    1.000
    Mo33     Mo       0.91625    0.58265    0.06270    1.000
    S34      S        0.83334    0.66610    0.99350    1.000
    S35      S        0.83257    0.66584    0.13154    1.000
    Mo36     Mo       0.16629    0.83262    0.06283    1.000
    S37      S        0.08308    0.91591    0.99374    1.000
    S38      S        0.08288    0.91604    0.13168    1.000
    Mo39     Mo       0.41636    0.83265    0.06285    1.000
    S40      S        0.33295    0.91588    0.99387    1.000
    S41      S        0.33306    0.91617    0.13179    1.000
    Mo42     Mo       0.66629    0.83265    0.06256    1.000
    S43      S        0.58279    0.91598    0.99375    1.000
    S44      S        0.58314    0.91596    0.13174    1.000
    Mo45     Mo       0.91628    0.83258    0.06261    1.000
    S46      S        0.83304    0.91604    0.99368    1.000
    S47      S        0.83283    0.91574    0.13164    1.000
    C48      C        0.58229    0.64556    0.28732    1.000
    H49      H        0.50497    0.64150    0.26699    1.000
    H50      H        0.66098    0.71849    0.26772    1.000
    H51      H        0.58154    0.66675    0.33331    1.000
    C52      C        0.58136    0.52983    0.28102    1.000
    C53      C        0.47461    0.42215    0.27907    1.000
    H54      H        0.39189    0.42236    0.27975    1.000
    C55      C        0.47347    0.31485    0.27649    1.000
    H56      H        0.39014    0.23279    0.27520    1.000
    C57      C        0.57957    0.31347    0.27543    1.000
    H58      H        0.57894    0.23054    0.27322    1.000
    C59      C        0.68720    0.52717    0.27919    1.000
    H60      H        0.77061    0.60939    0.27995    1.000
    C61      C        0.68653    0.42010    0.27659    1.000
    H62      H        0.76919    0.42001    0.27534    1.000
