# CIF file generated by openbabel 3.1.0, see https://openbabel.org
data_I
_chemical_name_common ''
_cell_length_a 13.105
_cell_length_b 13.105
_cell_length_c 23.0122
_cell_angle_alpha 90
_cell_angle_beta 90
_cell_angle_gamma 120
loop_
    _atom_site_label
    _atom_site_type_symbol
    _atom_site_fract_x
    _atom_site_fract_y
    _atom_site_fract_z
    _atom_site_occupancy
    Mo0      Mo       0.16781    0.08434    0.06240    1.000
    S1       S        0.08444    0.16752    0.99337    1.000
    S2       S        0.08463    0.16788    0.13134    1.000
    Mo3      Mo       0.41783    0.08439    0.06236    1.000
    S4       S        0.33435    0.16753    0.99336    1.000
    S5       S        0.33452    0.16788    0.13133    1.000
    Mo6      Mo       0.66783    0.08433    0.06231    1.000
    S7       S        0.58449    0.16774    0.99342    1.000
    S8       S        0.58451    0.16765    0.13136    1.000
    Mo9      Mo       0.91785    0.08436    0.06238    1.000
    S10      S        0.83456    0.16769    0.99341    1.000
    S11      S        0.83449    0.16774    0.13134    1.000
    Mo12     Mo       0.16794    0.33441    0.06214    1.000
    S13      S        0.08438    0.41762    0.99327    1.000
    S14      S        0.08483    0.41784    0.13129    1.000
    Mo15     Mo       0.41777    0.33441    0.06213    1.000
    S16      S        0.33443    0.41757    0.99297    1.000
    S17      S        0.33459    0.41787    0.13076    1.000
    Mo18     Mo       0.66778    0.33436    0.06238    1.000
    S19      S        0.58456    0.41758    0.99329    1.000
    S20      S        0.58429    0.41784    0.13131    1.000
    Mo21     Mo       0.91790    0.33438    0.06235    1.000
    S22      S        0.83447    0.41766    0.99344    1.000
    S23      S        0.83445    0.41760    0.13136    1.000
    Mo24     Mo       0.16795    0.58439    0.06215    1.000
    S25      S        0.08443    0.66774    0.99338    1.000
    S26      S        0.08463    0.66758    0.13135    1.000
    Mo27     Mo       0.41790    0.58436    0.06185    1.000
    S28      S        0.33447    0.66777    0.99299    1.000
    S29      S        0.33469    0.66758    0.13075    1.000
    Mo30     Mo       0.66778    0.58437    0.06215    1.000
    S31      S        0.58465    0.66767    0.99296    1.000
    S32      S        0.58435    0.66764    0.13079    1.000
    Mo33     Mo       0.91782    0.58431    0.06239    1.000
    S34      S        0.83462    0.66772    0.99337    1.000
    S35      S        0.83430    0.66757    0.13133    1.000
    Mo36     Mo       0.16783    0.83434    0.06238    1.000
    S37      S        0.08452    0.91768    0.99343    1.000
    S38      S        0.08448    0.91764    0.13138    1.000
    Mo39     Mo       0.41781    0.83430    0.06211    1.000
    S40      S        0.33440    0.91772    0.99335    1.000
    S41      S        0.33457    0.91765    0.13127    1.000
    Mo42     Mo       0.66782    0.83422    0.06205    1.000
    S43      S        0.58451    0.91780    0.99319    1.000
    S44      S        0.58447    0.91739    0.13116    1.000
    Mo45     Mo       0.91785    0.83431    0.06238    1.000
    S46      S        0.83473    0.91776    0.99335    1.000
    S47      S        0.83430    0.91751    0.13129    1.000
    C48      C        0.40519    0.79852    0.28164    1.000
    H49      H        0.32772    0.78926    0.25892    1.000
    H50      H        0.48359    0.86915    0.26062    1.000
    H51      H        0.40262    0.82679    0.32614    1.000
    C52      C        0.40722    0.68375    0.28138    1.000
    C53      C        0.30179    0.57464    0.28148    1.000
    H54      H        0.21808    0.57285    0.28074    1.000
    C55      C        0.30322    0.46866    0.28203    1.000
    H56      H        0.22090    0.38552    0.28149    1.000
    C57      C        0.41058    0.46967    0.28245    1.000
    H58      H        0.41194    0.38763    0.28252    1.000
    C59      C        0.51420    0.68343    0.28158    1.000
    H60      H        0.59669    0.76661    0.28096    1.000
    C61      C        0.51607    0.57749    0.28211    1.000
    H62      H        0.59970    0.57931    0.28167    1.000
