# CIF file generated by openbabel 3.1.0, see https://openbabel.org
data_I
_chemical_name_common ''
_cell_length_a 13.105
_cell_length_b 13.105
_cell_length_c 23.0122
_cell_angle_alpha 90
_cell_angle_beta 90
_cell_angle_gamma 120
loop_
    _atom_site_label
    _atom_site_type_symbol
    _atom_site_fract_x
    _atom_site_fract_y
    _atom_site_fract_z
    _atom_site_occupancy
    Mo0      Mo       0.16743    0.08516    0.06163    1.000
    S1       S        0.08412    0.16840    0.99260    1.000
    S2       S        0.08426    0.16868    0.13058    1.000
    Mo3      Mo       0.41744    0.08521    0.06159    1.000
    S4       S        0.33398    0.16838    0.99260    1.000
    S5       S        0.33414    0.16868    0.13058    1.000
    Mo6      Mo       0.66748    0.08524    0.06139    1.000
    S7       S        0.58406    0.16865    0.99257    1.000
    S8       S        0.58416    0.16847    0.13051    1.000
    Mo9      Mo       0.91749    0.08522    0.06159    1.000
    S10      S        0.83430    0.16865    0.99258    1.000
    S11      S        0.83401    0.16847    0.13051    1.000
    Mo12     Mo       0.16757    0.33524    0.06144    1.000
    S13      S        0.08407    0.41852    0.99259    1.000
    S14      S        0.08433    0.41860    0.13055    1.000
    Mo15     Mo       0.41737    0.33524    0.06143    1.000
    S16      S        0.33410    0.41849    0.99229    1.000
    S17      S        0.33419    0.41864    0.13014    1.000
    Mo18     Mo       0.66746    0.33523    0.06158    1.000
    S19      S        0.58416    0.41852    0.99258    1.000
    S20      S        0.58397    0.41860    0.13054    1.000
    Mo21     Mo       0.91748    0.33524    0.06158    1.000
    S22      S        0.83415    0.41859    0.99264    1.000
    S23      S        0.83407    0.41845    0.13062    1.000
    Mo24     Mo       0.16759    0.58526    0.06150    1.000
    S25      S        0.08406    0.66852    0.99265    1.000
    S26      S        0.08425    0.66846    0.13062    1.000
    Mo27     Mo       0.41749    0.58525    0.06126    1.000
    S28      S        0.33403    0.66848    0.99230    1.000
    S29      S        0.33440    0.66871    0.13020    1.000
    Mo30     Mo       0.66739    0.58526    0.06149    1.000
    S31      S        0.58418    0.66849    0.99230    1.000
    S32      S        0.58404    0.66872    0.13020    1.000
    Mo33     Mo       0.91743    0.58517    0.06166    1.000
    S34      S        0.83419    0.66853    0.99264    1.000
    S35      S        0.83392    0.66847    0.13061    1.000
    Mo36     Mo       0.16743    0.83515    0.06163    1.000
    S37      S        0.08410    0.91847    0.99267    1.000
    S38      S        0.08409    0.91846    0.13062    1.000
    Mo39     Mo       0.41744    0.83517    0.06126    1.000
    S40      S        0.33396    0.91861    0.99257    1.000
    S41      S        0.33428    0.91840    0.13051    1.000
    Mo42     Mo       0.66745    0.83518    0.06126    1.000
    S43      S        0.58418    0.91865    0.99228    1.000
    S44      S        0.58411    0.91850    0.13016    1.000
    Mo45     Mo       0.91743    0.83516    0.06163    1.000
    S46      S        0.83438    0.91863    0.99256    1.000
    S47      S        0.83384    0.91841    0.13051    1.000
    C48      C        0.54000    0.83400    0.28689    1.000
    H49      H        0.49153    0.87105    0.26525    1.000
    H50      H        0.62592    0.86981    0.26580    1.000
    H51      H        0.55546    0.86564    0.33185    1.000
    C52      C        0.47234    0.70038    0.28473    1.000
    C53      C        0.34854    0.63737    0.28403    1.000
    H54      H        0.30069    0.68517    0.28424    1.000
    C55      C        0.28611    0.51407    0.28265    1.000
    H56      H        0.19060    0.46722    0.28160    1.000
    C57      C        0.34672    0.45137    0.28207    1.000
    H58      H        0.29851    0.35587    0.28084    1.000
    C59      C        0.53197    0.63624    0.28390    1.000
    H60      H        0.62762    0.68318    0.28404    1.000
    C61      C        0.47004    0.51294    0.28253    1.000
    H62      H        0.51783    0.46522    0.28140    1.000
