# CIF file generated by openbabel 3.1.0, see https://openbabel.org
data_I
_chemical_name_common ''
_cell_length_a 13.105
_cell_length_b 13.105
_cell_length_c 23.0122
_cell_angle_alpha 90
_cell_angle_beta 90
_cell_angle_gamma 120
loop_
    _atom_site_label
    _atom_site_type_symbol
    _atom_site_fract_x
    _atom_site_fract_y
    _atom_site_fract_z
    _atom_site_occupancy
    Mo0      Mo       0.16617    0.08416    0.06174    1.000
    S1       S        0.08269    0.16726    0.99275    1.000
    S2       S        0.08303    0.16773    0.13068    1.000
    Mo3      Mo       0.41613    0.08418    0.06168    1.000
    S4       S        0.33266    0.16725    0.99267    1.000
    S5       S        0.33301    0.16779    0.13065    1.000
    Mo6      Mo       0.66615    0.08415    0.06170    1.000
    S7       S        0.58278    0.16734    0.99269    1.000
    S8       S        0.58282    0.16764    0.13063    1.000
    Mo9      Mo       0.91616    0.08412    0.06176    1.000
    S10      S        0.83286    0.16743    0.99280    1.000
    S11      S        0.83280    0.16747    0.13069    1.000
    Mo12     Mo       0.16618    0.33420    0.06149    1.000
    S13      S        0.08262    0.41744    0.99264    1.000
    S14      S        0.08301    0.41757    0.13060    1.000
    Mo15     Mo       0.41614    0.33419    0.06140    1.000
    S16      S        0.33270    0.41739    0.99235    1.000
    S17      S        0.33290    0.41765    0.13026    1.000
    Mo18     Mo       0.66612    0.33415    0.06148    1.000
    S19      S        0.58284    0.41743    0.99238    1.000
    S20      S        0.58278    0.41748    0.13020    1.000
    Mo21     Mo       0.91613    0.33413    0.06171    1.000
    S22      S        0.83293    0.41750    0.99269    1.000
    S23      S        0.83262    0.41744    0.13064    1.000
    Mo24     Mo       0.16606    0.58414    0.06155    1.000
    S25      S        0.08271    0.66756    0.99272    1.000
    S26      S        0.08282    0.66740    0.13064    1.000
    Mo27     Mo       0.41616    0.58413    0.06126    1.000
    S28      S        0.33268    0.66759    0.99246    1.000
    S29      S        0.33290    0.66741    0.13029    1.000
    Mo30     Mo       0.66607    0.58413    0.06140    1.000
    S31      S        0.58289    0.66758    0.99235    1.000
    S32      S        0.58264    0.66740    0.13028    1.000
    Mo33     Mo       0.91609    0.58413    0.06169    1.000
    S34      S        0.83301    0.66760    0.99268    1.000
    S35      S        0.83246    0.66726    0.13066    1.000
    Mo36     Mo       0.16613    0.83414    0.06173    1.000
    S37      S        0.08278    0.91748    0.99281    1.000
    S38      S        0.08281    0.91746    0.13072    1.000
    Mo39     Mo       0.41613    0.83422    0.06154    1.000
    S40      S        0.33269    0.91754    0.99271    1.000
    S41      S        0.33286    0.91745    0.13064    1.000
    Mo42     Mo       0.66608    0.83410    0.06149    1.000
    S43      S        0.58284    0.91766    0.99264    1.000
    S44      S        0.58270    0.91727    0.13059    1.000
    Mo45     Mo       0.91611    0.83410    0.06175    1.000
    S46      S        0.83302    0.91759    0.99274    1.000
    S47      S        0.83254    0.91725    0.13067    1.000
    C48      C        0.36778    0.62705    0.28754    1.000
    H49      H        0.28224    0.57896    0.26592    1.000
    H50      H        0.41777    0.71334    0.26680    1.000
    H51      H        0.35161    0.64180    0.33262    1.000
    C52      C        0.43377    0.55944    0.28471    1.000
    C53      C        0.37273    0.43564    0.28365    1.000
    H54      H        0.27708    0.38804    0.28403    1.000
    C55      C        0.43317    0.37283    0.28174    1.000
    H56      H        0.38418    0.27734    0.28048    1.000
    C57      C        0.55644    0.43312    0.28088    1.000
    H58      H        0.60352    0.38477    0.27911    1.000
    C59      C        0.55754    0.61876    0.28360    1.000
    H60      H        0.60653    0.71440    0.28397    1.000
    C61      C        0.61850    0.55644    0.28168    1.000
    H62      H        0.71402    0.60408    0.28039    1.000
