# CIF file generated by openbabel 3.1.0, see https://openbabel.org
data_I
_chemical_name_common ''
_cell_length_a 13.105
_cell_length_b 13.105
_cell_length_c 23.0122
_cell_angle_alpha 90
_cell_angle_beta 90
_cell_angle_gamma 120
loop_
    _atom_site_label
    _atom_site_type_symbol
    _atom_site_fract_x
    _atom_site_fract_y
    _atom_site_fract_z
    _atom_site_occupancy
    Mo0      Mo       0.16648    0.08310    0.06255    1.000
    S1       S        0.08307    0.16625    0.99350    1.000
    S2       S        0.08331    0.16667    0.13148    1.000
    Mo3      Mo       0.41646    0.08310    0.06255    1.000
    S4       S        0.33298    0.16611    0.99346    1.000
    S5       S        0.33330    0.16677    0.13149    1.000
    Mo6      Mo       0.66647    0.08309    0.06252    1.000
    S7       S        0.58302    0.16624    0.99350    1.000
    S8       S        0.58320    0.16667    0.13148    1.000
    Mo9      Mo       0.91645    0.08309    0.06252    1.000
    S10      S        0.83313    0.16643    0.99356    1.000
    S11      S        0.83313    0.16642    0.13150    1.000
    Mo12     Mo       0.16657    0.33313    0.06228    1.000
    S13      S        0.08309    0.41654    0.99350    1.000
    S14      S        0.08335    0.41639    0.13147    1.000
    Mo15     Mo       0.41647    0.33311    0.06215    1.000
    S16      S        0.33298    0.41626    0.99313    1.000
    S17      S        0.33329    0.41649    0.13098    1.000
    Mo18     Mo       0.66640    0.33312    0.06228    1.000
    S19      S        0.58312    0.41626    0.99314    1.000
    S20      S        0.58304    0.41648    0.13099    1.000
    Mo21     Mo       0.91646    0.33309    0.06253    1.000
    S22      S        0.83328    0.41654    0.99350    1.000
    S23      S        0.83288    0.41639    0.13147    1.000
    Mo24     Mo       0.16649    0.58311    0.06253    1.000
    S25      S        0.08315    0.66648    0.99360    1.000
    S26      S        0.08310    0.66636    0.13155    1.000
    Mo27     Mo       0.41641    0.58296    0.06208    1.000
    S28      S        0.33295    0.66657    0.99342    1.000
    S29      S        0.33334    0.66620    0.13147    1.000
    Mo30     Mo       0.66638    0.58296    0.06209    1.000
    S31      S        0.58317    0.66649    0.99312    1.000
    S32      S        0.58287    0.66592    0.13083    1.000
    Mo33     Mo       0.91645    0.58310    0.06253    1.000
    S34      S        0.83344    0.66657    0.99343    1.000
    S35      S        0.83269    0.66620    0.13147    1.000
    Mo36     Mo       0.16646    0.83308    0.06260    1.000
    S37      S        0.08315    0.91641    0.99361    1.000
    S38      S        0.08309    0.91644    0.13155    1.000
    Mo39     Mo       0.41643    0.83304    0.06253    1.000
    S40      S        0.33309    0.91641    0.99361    1.000
    S41      S        0.33318    0.91643    0.13155    1.000
    Mo42     Mo       0.66638    0.83292    0.06229    1.000
    S43      S        0.58302    0.91644    0.99351    1.000
    S44      S        0.58316    0.91622    0.13145    1.000
    Mo45     Mo       0.91644    0.83304    0.06253    1.000
    S46      S        0.83325    0.91644    0.99351    1.000
    S47      S        0.83289    0.91622    0.13146    1.000
    C48      C        0.63123    0.76321    0.27974    1.000
    H49      H        0.58168    0.79860    0.25769    1.000
    H50      H        0.71614    0.79737    0.25780    1.000
    H51      H        0.64885    0.79821    0.32409    1.000
    C52      C        0.56348    0.62951    0.28024    1.000
    C53      C        0.43967    0.56676    0.28087    1.000
    H54      H        0.39195    0.61467    0.27977    1.000
    C55      C        0.37710    0.44348    0.28238    1.000
    H56      H        0.28158    0.39670    0.28245    1.000
    C57      C        0.43748    0.38055    0.28323    1.000
    H58      H        0.38916    0.28506    0.28423    1.000
    C59      C        0.62302    0.56525    0.28079    1.000
    H60      H        0.71864    0.61198    0.27965    1.000
    C61      C        0.56077    0.44194    0.28229    1.000
    H62      H        0.60838    0.39401    0.28233    1.000
