# CIF file generated by openbabel 3.1.0, see https://openbabel.org
data_I
_chemical_name_common ''
_cell_length_a 13.105
_cell_length_b 13.105
_cell_length_c 23.0122
_cell_angle_alpha 90
_cell_angle_beta 90
_cell_angle_gamma 120
loop_
    _atom_site_label
    _atom_site_type_symbol
    _atom_site_fract_x
    _atom_site_fract_y
    _atom_site_fract_z
    _atom_site_occupancy
    Mo0      Mo       0.16651    0.08315    0.06220    1.000
    S1       S        0.08316    0.16639    0.99319    1.000
    S2       S        0.08331    0.16669    0.13114    1.000
    Mo3      Mo       0.41656    0.08319    0.06218    1.000
    S4       S        0.33312    0.16638    0.99320    1.000
    S5       S        0.33324    0.16667    0.13114    1.000
    Mo6      Mo       0.66653    0.08318    0.06216    1.000
    S7       S        0.58320    0.16654    0.99322    1.000
    S8       S        0.58322    0.16652    0.13117    1.000
    Mo9      Mo       0.91652    0.08321    0.06218    1.000
    S10      S        0.83320    0.16653    0.99320    1.000
    S11      S        0.83319    0.16654    0.13115    1.000
    Mo12     Mo       0.16667    0.33323    0.06200    1.000
    S13      S        0.08311    0.41644    0.99311    1.000
    S14      S        0.08346    0.41665    0.13111    1.000
    Mo15     Mo       0.41652    0.33322    0.06201    1.000
    S16      S        0.33316    0.41629    0.99282    1.000
    S17      S        0.33335    0.41669    0.13071    1.000
    Mo18     Mo       0.66653    0.33320    0.06218    1.000
    S19      S        0.58328    0.41645    0.99312    1.000
    S20      S        0.58310    0.41663    0.13115    1.000
    Mo21     Mo       0.91655    0.33320    0.06216    1.000
    S22      S        0.83319    0.41652    0.99322    1.000
    S23      S        0.83321    0.41651    0.13117    1.000
    Mo24     Mo       0.16665    0.58321    0.06196    1.000
    S25      S        0.08318    0.66662    0.99319    1.000
    S26      S        0.08331    0.66642    0.13112    1.000
    Mo27     Mo       0.41662    0.58310    0.06168    1.000
    S28      S        0.33318    0.66655    0.99278    1.000
    S29      S        0.33345    0.66627    0.13052    1.000
    Mo30     Mo       0.66651    0.58321    0.06201    1.000
    S31      S        0.58344    0.66657    0.99282    1.000
    S32      S        0.58304    0.66638    0.13071    1.000
    Mo33     Mo       0.91654    0.58317    0.06219    1.000
    S34      S        0.83335    0.66661    0.99320    1.000
    S35      S        0.83306    0.66649    0.13114    1.000
    Mo36     Mo       0.16653    0.83320    0.06221    1.000
    S37      S        0.08321    0.91652    0.99321    1.000
    S38      S        0.08320    0.91653    0.13122    1.000
    Mo39     Mo       0.41652    0.83308    0.06196    1.000
    S40      S        0.33311    0.91655    0.99319    1.000
    S41      S        0.33331    0.91642    0.13112    1.000
    Mo42     Mo       0.66649    0.83306    0.06200    1.000
    S43      S        0.58329    0.91662    0.99311    1.000
    S44      S        0.58307    0.91627    0.13111    1.000
    Mo45     Mo       0.91658    0.83321    0.06220    1.000
    S46      S        0.83333    0.91657    0.99319    1.000
    S47      S        0.83303    0.91641    0.13114    1.000
    C48      C        0.28863    0.71347    0.27952    1.000
    H49      H        0.20395    0.66335    0.25730    1.000
    H50      H        0.33949    0.79802    0.25727    1.000
    H51      H        0.27062    0.73187    0.32361    1.000
    C52      C        0.35485    0.64602    0.28097    1.000
    C53      C        0.29414    0.52220    0.28195    1.000
    H54      H        0.19852    0.47422    0.28053    1.000
    C55      C        0.35520    0.46002    0.28427    1.000
    H56      H        0.30667    0.36448    0.28452    1.000
    C57      C        0.47851    0.52076    0.28549    1.000
    H58      H        0.52591    0.47270    0.28695    1.000
    C59      C        0.47863    0.70589    0.28195    1.000
    H60      H        0.52724    0.80151    0.28056    1.000
    C61      C        0.54005    0.64407    0.28428    1.000
    H62      H        0.63558    0.69196    0.28452    1.000
