# CIF file generated by openbabel 3.1.0, see https://openbabel.org
data_I
_chemical_name_common ''
_cell_length_a 13.105
_cell_length_b 13.105
_cell_length_c 23.0122
_cell_angle_alpha 90
_cell_angle_beta 90
_cell_angle_gamma 120
loop_
    _atom_site_label
    _atom_site_type_symbol
    _atom_site_fract_x
    _atom_site_fract_y
    _atom_site_fract_z
    _atom_site_occupancy
    Mo0      Mo       0.16540    0.08294    0.06248    1.000
    S1       S        0.08195    0.16604    0.99345    1.000
    S2       S        0.08219    0.16647    0.13138    1.000
    Mo3      Mo       0.41534    0.08293    0.06250    1.000
    S4       S        0.33193    0.16600    0.99343    1.000
    S5       S        0.33217    0.16656    0.13143    1.000
    Mo6      Mo       0.66535    0.08296    0.06241    1.000
    S7       S        0.58189    0.16612    0.99345    1.000
    S8       S        0.58215    0.16652    0.13139    1.000
    Mo9      Mo       0.91534    0.08291    0.06245    1.000
    S10      S        0.83205    0.16627    0.99348    1.000
    S11      S        0.83200    0.16626    0.13142    1.000
    Mo12     Mo       0.16546    0.33295    0.06220    1.000
    S13      S        0.08186    0.41626    0.99342    1.000
    S14      S        0.08214    0.41617    0.13135    1.000
    Mo15     Mo       0.41538    0.33298    0.06210    1.000
    S16      S        0.33196    0.41619    0.99305    1.000
    S17      S        0.33213    0.41632    0.13089    1.000
    Mo18     Mo       0.66529    0.33300    0.06221    1.000
    S19      S        0.58203    0.41625    0.99308    1.000
    S20      S        0.58197    0.41631    0.13091    1.000
    Mo21     Mo       0.91533    0.33290    0.06244    1.000
    S22      S        0.83220    0.41638    0.99346    1.000
    S23      S        0.83180    0.41619    0.13139    1.000
    Mo24     Mo       0.16528    0.58289    0.06239    1.000
    S25      S        0.08195    0.66634    0.99352    1.000
    S26      S        0.08195    0.66618    0.13146    1.000
    Mo27     Mo       0.41530    0.58282    0.06204    1.000
    S28      S        0.33192    0.66642    0.99334    1.000
    S29      S        0.33192    0.66594    0.13128    1.000
    Mo30     Mo       0.66525    0.58288    0.06211    1.000
    S31      S        0.58200    0.66628    0.99309    1.000
    S32      S        0.58182    0.66599    0.13090    1.000
    Mo33     Mo       0.91530    0.58294    0.06248    1.000
    S34      S        0.83224    0.66639    0.99343    1.000
    S35      S        0.83169    0.66608    0.13143    1.000
    Mo36     Mo       0.16534    0.83290    0.06255    1.000
    S37      S        0.08206    0.91622    0.99358    1.000
    S38      S        0.08202    0.91630    0.13148    1.000
    Mo39     Mo       0.41529    0.83289    0.06247    1.000
    S40      S        0.33194    0.91623    0.99358    1.000
    S41      S        0.33204    0.91626    0.13152    1.000
    Mo42     Mo       0.66524    0.83281    0.06223    1.000
    S43      S        0.58185    0.91629    0.99345    1.000
    S44      S        0.58212    0.91626    0.13133    1.000
    Mo45     Mo       0.91531    0.83288    0.06249    1.000
    S46      S        0.83215    0.91629    0.99348    1.000
    S47      S        0.83179    0.91612    0.13141    1.000
    C48      C        0.50490    0.72739    0.28152    1.000
    H49      H        0.42602    0.72053    0.26155    1.000
    H50      H        0.58170    0.79418    0.25781    1.000
    H51      H        0.51051    0.75960    0.32599    1.000
    C52      C        0.50061    0.60952    0.28116    1.000
    C53      C        0.39271    0.50319    0.28131    1.000
    H54      H        0.31094    0.50527    0.28083    1.000
    C55      C        0.38895    0.39445    0.28162    1.000
    H56      H        0.30465    0.31338    0.28118    1.000
    C57      C        0.49344    0.39019    0.28178    1.000
    H58      H        0.49070    0.30613    0.28176    1.000
    C59      C        0.60502    0.60389    0.28115    1.000
    H60      H        0.68944    0.68503    0.28055    1.000
    C61      C        0.60175    0.49559    0.28147    1.000
    H62      H        0.68336    0.49338    0.28091    1.000
