# CIF file generated by openbabel 3.1.0, see https://openbabel.org
data_I
_chemical_name_common ''
_cell_length_a 13.105
_cell_length_b 13.105
_cell_length_c 23.0122
_cell_angle_alpha 90
_cell_angle_beta 90
_cell_angle_gamma 120
loop_
    _atom_site_label
    _atom_site_type_symbol
    _atom_site_fract_x
    _atom_site_fract_y
    _atom_site_fract_z
    _atom_site_occupancy
    Mo0      Mo       0.16670    0.08224    0.06358    1.000
    S1       S        0.08326    0.16554    0.99468    1.000
    S2       S        0.08349    0.16563    0.13264    1.000
    Mo3      Mo       0.41669    0.08236    0.06371    1.000
    S4       S        0.33321    0.16523    0.99448    1.000
    S5       S        0.33336    0.16587    0.13252    1.000
    Mo6      Mo       0.66655    0.08219    0.06372    1.000
    S7       S        0.58325    0.16542    0.99467    1.000
    S8       S        0.58343    0.16589    0.13265    1.000
    Mo9      Mo       0.91668    0.08220    0.06372    1.000
    S10      S        0.83332    0.16560    0.99484    1.000
    S11      S        0.83327    0.16559    0.13269    1.000
    Mo12     Mo       0.16659    0.33224    0.06362    1.000
    S13      S        0.08332    0.41577    0.99479    1.000
    S14      S        0.08335    0.41540    0.13282    1.000
    Mo15     Mo       0.41655    0.33215    0.06320    1.000
    S16      S        0.33308    0.41573    0.99453    1.000
    S17      S        0.33344    0.41525    0.13242    1.000
    Mo18     Mo       0.66657    0.33230    0.06347    1.000
    S19      S        0.58336    0.41556    0.99422    1.000
    S20      S        0.58296    0.41582    0.13177    1.000
    Mo21     Mo       0.91668    0.33233    0.06374    1.000
    S22      S        0.83349    0.41567    0.99469    1.000
    S23      S        0.83294    0.41542    0.13269    1.000
    Mo24     Mo       0.16664    0.58216    0.06392    1.000
    S25      S        0.08338    0.66554    0.99495    1.000
    S26      S        0.08311    0.66544    0.13285    1.000
    Mo27     Mo       0.41669    0.58220    0.06365    1.000
    S28      S        0.33320    0.66568    0.99491    1.000
    S29      S        0.33351    0.66540    0.13285    1.000
    Mo30     Mo       0.66671    0.58230    0.06324    1.000
    S31      S        0.58319    0.66580    0.99454    1.000
    S32      S        0.58361    0.66542    0.13245    1.000
    Mo33     Mo       0.91652    0.58217    0.06375    1.000
    S34      S        0.83366    0.66566    0.99453    1.000
    S35      S        0.83295    0.66545    0.13259    1.000
    Mo36     Mo       0.16666    0.83223    0.06388    1.000
    S37      S        0.08342    0.91544    0.99476    1.000
    S38      S        0.08323    0.91569    0.13268    1.000
    Mo39     Mo       0.41671    0.83225    0.06390    1.000
    S40      S        0.33332    0.91550    0.99492    1.000
    S41      S        0.33347    0.91581    0.13283    1.000
    Mo42     Mo       0.66664    0.83228    0.06363    1.000
    S43      S        0.58312    0.91554    0.99478    1.000
    S44      S        0.58348    0.91555    0.13281    1.000
    Mo45     Mo       0.91663    0.83216    0.06362    1.000
    S46      S        0.83335    0.91561    0.99471    1.000
    S47      S        0.83326    0.91541    0.13266    1.000
    C48      C        0.44684    0.54547    0.28394    1.000
    H49      H        0.35880    0.49655    0.26491    1.000
    H50      H        0.49400    0.63162    0.26283    1.000
    H51      H        0.43629    0.56056    0.32982    1.000
    C52      C        0.51309    0.47855    0.27806    1.000
    C53      C        0.45251    0.35480    0.27583    1.000
    H54      H        0.35685    0.30680    0.27613    1.000
    C55      C        0.51365    0.29269    0.27304    1.000
    H56      H        0.46504    0.19722    0.27120    1.000
    C57      C        0.63697    0.35354    0.27224    1.000
    H58      H        0.68438    0.30558    0.26967    1.000
    C59      C        0.63692    0.53854    0.27656    1.000
    H60      H        0.68543    0.63418    0.27745    1.000
    C61      C        0.69842    0.47685    0.27376    1.000
    H62      H        0.79393    0.52488    0.27248    1.000
