# CIF file generated by openbabel 3.1.0, see https://openbabel.org
data_I
_chemical_name_common ''
_cell_length_a 13.105
_cell_length_b 13.105
_cell_length_c 23.0122
_cell_angle_alpha 90
_cell_angle_beta 90
_cell_angle_gamma 120
loop_
    _atom_site_label
    _atom_site_type_symbol
    _atom_site_fract_x
    _atom_site_fract_y
    _atom_site_fract_z
    _atom_site_occupancy
    Mo0      Mo       0.16887    0.08798    0.06265    1.000
    S1       S        0.08531    0.17109    0.99373    1.000
    S2       S        0.08561    0.17123    0.13177    1.000
    Mo3      Mo       0.41876    0.08798    0.06266    1.000
    S4       S        0.33527    0.17090    0.99340    1.000
    S5       S        0.33574    0.17183    0.13121    1.000
    Mo6      Mo       0.66867    0.08784    0.06278    1.000
    S7       S        0.58543    0.17108    0.99373    1.000
    S8       S        0.58527    0.17123    0.13177    1.000
    Mo9      Mo       0.91882    0.08784    0.06278    1.000
    S10      S        0.83540    0.17116    0.99390    1.000
    S11      S        0.83537    0.17108    0.13178    1.000
    Mo12     Mo       0.16876    0.33778    0.06264    1.000
    S13      S        0.08521    0.42118    0.99389    1.000
    S14      S        0.08558    0.42101    0.13180    1.000
    Mo15     Mo       0.41881    0.33798    0.06219    1.000
    S16      S        0.33511    0.42119    0.99335    1.000
    S17      S        0.33566    0.42129    0.13125    1.000
    Mo18     Mo       0.66867    0.33777    0.06263    1.000
    S19      S        0.58572    0.42118    0.99335    1.000
    S20      S        0.58529    0.42129    0.13124    1.000
    Mo21     Mo       0.91872    0.33779    0.06289    1.000
    S22      S        0.83562    0.42118    0.99389    1.000
    S23      S        0.83508    0.42101    0.13180    1.000
    Mo24     Mo       0.16875    0.58779    0.06288    1.000
    S25      S        0.08540    0.67116    0.99399    1.000
    S26      S        0.08540    0.67115    0.13185    1.000
    Mo27     Mo       0.41870    0.58785    0.06239    1.000
    S28      S        0.33516    0.67132    0.99376    1.000
    S29      S        0.33559    0.67096    0.13173    1.000
    Mo30     Mo       0.66880    0.58785    0.06239    1.000
    S31      S        0.58549    0.67133    0.99348    1.000
    S32      S        0.58542    0.67120    0.13131    1.000
    Mo33     Mo       0.91869    0.58779    0.06287    1.000
    S34      S        0.83580    0.67132    0.99376    1.000
    S35      S        0.83501    0.67095    0.13173    1.000
    Mo36     Mo       0.16879    0.83792    0.06294    1.000
    S37      S        0.08542    0.92102    0.99390    1.000
    S38      S        0.08560    0.92153    0.13187    1.000
    Mo39     Mo       0.41867    0.83781    0.06283    1.000
    S40      S        0.33525    0.92102    0.99390    1.000
    S41      S        0.33559    0.92153    0.13187    1.000
    Mo42     Mo       0.66877    0.83789    0.06257    1.000
    S43      S        0.58526    0.92123    0.99380    1.000
    S44      S        0.58543    0.92106    0.13170    1.000
    Mo45     Mo       0.91879    0.83781    0.06283    1.000
    S46      S        0.83562    0.92123    0.99380    1.000
    S47      S        0.83528    0.92106    0.13170    1.000
    C48      C        0.50752    0.51196    0.27831    1.000
    H49      H        0.45793    0.54766    0.25658    1.000
    H50      H        0.59270    0.54709    0.25654    1.000
    H51      H        0.52466    0.54599    0.32285    1.000
    C52      C        0.44013    0.37823    0.27825    1.000
    C53      C        0.31629    0.31542    0.27921    1.000
    H54      H        0.26864    0.36338    0.27797    1.000
    C55      C        0.25380    0.19222    0.28190    1.000
    H56      H        0.15828    0.14559    0.28265    1.000
    C57      C        0.31431    0.12947    0.28345    1.000
    H58      H        0.26605    0.03409    0.28548    1.000
    C59      C        0.49968    0.31397    0.27905    1.000
    H60      H        0.59529    0.36082    0.27771    1.000
    C61      C        0.43755    0.19074    0.28174    1.000
    H62      H        0.48534    0.14300    0.28237    1.000
