# CIF file generated by openbabel 3.1.0, see https://openbabel.org
data_I
_chemical_name_common ''
_cell_length_a 13.105
_cell_length_b 13.105
_cell_length_c 23.0122
_cell_angle_alpha 90
_cell_angle_beta 90
_cell_angle_gamma 120
loop_
    _atom_site_label
    _atom_site_type_symbol
    _atom_site_fract_x
    _atom_site_fract_y
    _atom_site_fract_z
    _atom_site_occupancy
    Mo0      Mo       0.16785    0.08416    0.06204    1.000
    S1       S        0.08418    0.16728    0.99319    1.000
    S2       S        0.08473    0.16750    0.13125    1.000
    Mo3      Mo       0.41770    0.08409    0.06204    1.000
    S4       S        0.33424    0.16707    0.99278    1.000
    S5       S        0.33472    0.16792    0.13047    1.000
    Mo6      Mo       0.66762    0.08404    0.06233    1.000
    S7       S        0.58447    0.16736    0.99322    1.000
    S8       S        0.58411    0.16744    0.13125    1.000
    Mo9      Mo       0.91773    0.08402    0.06234    1.000
    S10      S        0.83433    0.16734    0.99343    1.000
    S11      S        0.83428    0.16728    0.13134    1.000
    Mo12     Mo       0.16764    0.33397    0.06209    1.000
    S13      S        0.08418    0.41743    0.99336    1.000
    S14      S        0.08450    0.41717    0.13133    1.000
    Mo15     Mo       0.41778    0.33413    0.06158    1.000
    S16      S        0.33410    0.41759    0.99290    1.000
    S17      S        0.33438    0.41699    0.13071    1.000
    Mo18     Mo       0.66760    0.33404    0.06214    1.000
    S19      S        0.58480    0.41756    0.99284    1.000
    S20      S        0.58407    0.41745    0.13071    1.000
    Mo21     Mo       0.91764    0.33396    0.06241    1.000
    S22      S        0.83446    0.41735    0.99339    1.000
    S23      S        0.83400    0.41721    0.13135    1.000
    Mo24     Mo       0.16768    0.58398    0.06242    1.000
    S25      S        0.08434    0.66731    0.99348    1.000
    S26      S        0.08431    0.66733    0.13133    1.000
    Mo27     Mo       0.41759    0.58397    0.06213    1.000
    S28      S        0.33424    0.66749    0.99340    1.000
    S29      S        0.33441    0.66714    0.13141    1.000
    Mo30     Mo       0.66776    0.58402    0.06200    1.000
    S31      S        0.58435    0.66749    0.99324    1.000
    S32      S        0.58429    0.66704    0.13115    1.000
    Mo33     Mo       0.91764    0.58399    0.06238    1.000
    S34      S        0.83464    0.66752    0.99330    1.000
    S35      S        0.83408    0.66719    0.13129    1.000
    Mo36     Mo       0.16771    0.83406    0.06240    1.000
    S37      S        0.08430    0.91718    0.99335    1.000
    S38      S        0.08467    0.91779    0.13133    1.000
    Mo39     Mo       0.41763    0.83401    0.06245    1.000
    S40      S        0.33425    0.91709    0.99335    1.000
    S41      S        0.33444    0.91775    0.13138    1.000
    Mo42     Mo       0.66766    0.83402    0.06233    1.000
    S43      S        0.58421    0.91730    0.99345    1.000
    S44      S        0.58433    0.91737    0.13135    1.000
    Mo45     Mo       0.91773    0.83407    0.06238    1.000
    S46      S        0.83433    0.91732    0.99342    1.000
    S47      S        0.83433    0.91733    0.13132    1.000
    C48      C        0.41379    0.49905    0.28349    1.000
    H49      H        0.33128    0.49036    0.26754    1.000
    H50      H        0.48589    0.56619    0.25739    1.000
    H51      H        0.42644    0.53227    0.32812    1.000
    C52      C        0.41170    0.38229    0.28138    1.000
    C53      C        0.30479    0.27477    0.28066    1.000
    H54      H        0.22221    0.27524    0.27984    1.000
    C55      C        0.30330    0.16720    0.28080    1.000
    H56      H        0.21980    0.08525    0.27990    1.000
    C57      C        0.40911    0.16531    0.28116    1.000
    H58      H        0.40811    0.08211    0.28083    1.000
    C59      C        0.51729    0.37902    0.28149    1.000
    H60      H        0.60086    0.46110    0.28170    1.000
    C61      C        0.51624    0.27171    0.28125    1.000
    H62      H        0.59876    0.27126    0.28092    1.000
