# CIF file generated by openbabel 3.1.0, see https://openbabel.org
data_I
_chemical_name_common ''
_cell_length_a 13.105
_cell_length_b 13.105
_cell_length_c 23.0122
_cell_angle_alpha 90
_cell_angle_beta 90
_cell_angle_gamma 120
loop_
    _atom_site_label
    _atom_site_type_symbol
    _atom_site_fract_x
    _atom_site_fract_y
    _atom_site_fract_z
    _atom_site_occupancy
    Mo0      Mo       0.16778    0.08400    0.06211    1.000
    S1       S        0.08430    0.16723    0.99322    1.000
    S2       S        0.08478    0.16753    0.13125    1.000
    Mo3      Mo       0.41770    0.08397    0.06216    1.000
    S4       S        0.33427    0.16692    0.99295    1.000
    S5       S        0.33451    0.16770    0.13074    1.000
    Mo6      Mo       0.66776    0.08397    0.06232    1.000
    S7       S        0.58442    0.16719    0.99324    1.000
    S8       S        0.58440    0.16755    0.13118    1.000
    Mo9      Mo       0.91781    0.08402    0.06233    1.000
    S10      S        0.83445    0.16735    0.99340    1.000
    S11      S        0.83443    0.16730    0.13131    1.000
    Mo12     Mo       0.16797    0.33403    0.06206    1.000
    S13      S        0.08442    0.41742    0.99334    1.000
    S14      S        0.08473    0.41722    0.13132    1.000
    Mo15     Mo       0.41787    0.33399    0.06166    1.000
    S16      S        0.33437    0.41746    0.99284    1.000
    S17      S        0.33475    0.41714    0.13053    1.000
    Mo18     Mo       0.66783    0.33407    0.06203    1.000
    S19      S        0.58483    0.41754    0.99290    1.000
    S20      S        0.58418    0.41698    0.13074    1.000
    Mo21     Mo       0.91782    0.33396    0.06237    1.000
    S22      S        0.83470    0.41742    0.99330    1.000
    S23      S        0.83425    0.41723    0.13129    1.000
    Mo24     Mo       0.16779    0.58399    0.06239    1.000
    S25      S        0.08447    0.66736    0.99344    1.000
    S26      S        0.08442    0.66730    0.13133    1.000
    Mo27     Mo       0.41779    0.58389    0.06207    1.000
    S28      S        0.33436    0.66745    0.99336    1.000
    S29      S        0.33450    0.66705    0.13137    1.000
    Mo30     Mo       0.66771    0.58387    0.06216    1.000
    S31      S        0.58456    0.66741    0.99324    1.000
    S32      S        0.58423    0.66699    0.13127    1.000
    Mo33     Mo       0.91778    0.58399    0.06237    1.000
    S34      S        0.83453    0.66739    0.99337    1.000
    S35      S        0.83419    0.66715    0.13134    1.000
    Mo36     Mo       0.16777    0.83400    0.06241    1.000
    S37      S        0.08432    0.91713    0.99336    1.000
    S38      S        0.08457    0.91758    0.13133    1.000
    Mo39     Mo       0.41776    0.83397    0.06244    1.000
    S40      S        0.33435    0.91713    0.99340    1.000
    S41      S        0.33449    0.91754    0.13140    1.000
    Mo42     Mo       0.66772    0.83389    0.06233    1.000
    S43      S        0.58433    0.91722    0.99342    1.000
    S44      S        0.58446    0.91729    0.13135    1.000
    Mo45     Mo       0.91774    0.83400    0.06240    1.000
    S46      S        0.83442    0.91729    0.99341    1.000
    S47      S        0.83437    0.91732    0.13134    1.000
    C48      C        0.40989    0.15549    0.28327    1.000
    H49      H        0.48247    0.15982    0.25784    1.000
    H50      H        0.32741    0.08320    0.26632    1.000
    H51      H        0.41999    0.13310    0.32795    1.000
    C52      C        0.41034    0.27151    0.28142    1.000
    C53      C        0.51702    0.37932    0.28149    1.000
    H54      H        0.59980    0.37919    0.28159    1.000
    C55      C        0.51813    0.48668    0.28128    1.000
    H56      H        0.60144    0.56882    0.28082    1.000
    C57      C        0.41207    0.48812    0.28125    1.000
    H58      H        0.41275    0.57118    0.28091    1.000
    C59      C        0.30452    0.27432    0.28085    1.000
    H60      H        0.22110    0.19210    0.28009    1.000
    C61      C        0.30519    0.38146    0.28098    1.000
    H62      H        0.22251    0.38157    0.28012    1.000
