# CIF file generated by openbabel 3.1.0, see https://openbabel.org
data_I
_chemical_name_common ''
_cell_length_a 13.105
_cell_length_b 13.105
_cell_length_c 23.0122
_cell_angle_alpha 90
_cell_angle_beta 90
_cell_angle_gamma 120
loop_
    _atom_site_label
    _atom_site_type_symbol
    _atom_site_fract_x
    _atom_site_fract_y
    _atom_site_fract_z
    _atom_site_occupancy
    Mo0      Mo       0.16721    0.08467    0.06194    1.000
    S1       S        0.08362    0.16784    0.99307    1.000
    S2       S        0.08433    0.16825    0.13112    1.000
    Mo3      Mo       0.41722    0.08467    0.06194    1.000
    S4       S        0.33368    0.16759    0.99275    1.000
    S5       S        0.33419    0.16862    0.13039    1.000
    Mo6      Mo       0.66721    0.08472    0.06226    1.000
    S7       S        0.58399    0.16785    0.99307    1.000
    S8       S        0.58369    0.16825    0.13113    1.000
    Mo9      Mo       0.91727    0.08471    0.06226    1.000
    S10      S        0.83391    0.16806    0.99335    1.000
    S11      S        0.83390    0.16803    0.13125    1.000
    Mo12     Mo       0.16730    0.33471    0.06188    1.000
    S13      S        0.08377    0.41818    0.99323    1.000
    S14      S        0.08415    0.41787    0.13121    1.000
    Mo15     Mo       0.41728    0.33479    0.06141    1.000
    S16      S        0.33367    0.41819    0.99265    1.000
    S17      S        0.33400    0.41780    0.13041    1.000
    Mo18     Mo       0.66718    0.33471    0.06189    1.000
    S19      S        0.58429    0.41819    0.99266    1.000
    S20      S        0.58355    0.41780    0.13042    1.000
    Mo21     Mo       0.91724    0.33471    0.06230    1.000
    S22      S        0.83418    0.41818    0.99323    1.000
    S23      S        0.83349    0.41787    0.13121    1.000
    Mo24     Mo       0.16729    0.58468    0.06232    1.000
    S25      S        0.08390    0.66804    0.99343    1.000
    S26      S        0.08389    0.66800    0.13128    1.000
    Mo27     Mo       0.41722    0.58461    0.06189    1.000
    S28      S        0.33379    0.66816    0.99322    1.000
    S29      S        0.33410    0.66778    0.13125    1.000
    Mo30     Mo       0.66717    0.58461    0.06190    1.000
    S31      S        0.58401    0.66824    0.99303    1.000
    S32      S        0.58373    0.66768    0.13103    1.000
    Mo33     Mo       0.91716    0.58468    0.06232    1.000
    S34      S        0.83415    0.66816    0.99322    1.000
    S35      S        0.83345    0.66778    0.13125    1.000
    Mo36     Mo       0.16725    0.83474    0.06235    1.000
    S37      S        0.08373    0.91770    0.99325    1.000
    S38      S        0.08407    0.91835    0.13126    1.000
    Mo39     Mo       0.41722    0.83467    0.06231    1.000
    S40      S        0.33374    0.91770    0.99325    1.000
    S41      S        0.33405    0.91835    0.13126    1.000
    Mo42     Mo       0.66721    0.83465    0.06219    1.000
    S43      S        0.58384    0.91803    0.99332    1.000
    S44      S        0.58391    0.91798    0.13124    1.000
    Mo45     Mo       0.91721    0.83466    0.06231    1.000
    S46      S        0.83396    0.91803    0.99332    1.000
    S47      S        0.83384    0.91798    0.13124    1.000
    C48      C        0.31333    0.12728    0.28306    1.000
    H49      H        0.36252    0.09077    0.26166    1.000
    H50      H        0.22779    0.09149    0.26157    1.000
    H51      H        0.29701    0.09512    0.32793    1.000
    C52      C        0.38071    0.26106    0.28151    1.000
    C53      C        0.50457    0.32423    0.28157    1.000
    H54      H        0.55254    0.27652    0.28100    1.000
    C55      C        0.56677    0.44757    0.28203    1.000
    H56      H        0.66231    0.49456    0.28198    1.000
    C57      C        0.50604    0.51014    0.28217    1.000
    H58      H        0.55411    0.60562    0.28217    1.000
    C59      C        0.32085    0.32504    0.28145    1.000
    H60      H        0.22518    0.27796    0.28078    1.000
    C61      C        0.38277    0.44837    0.28190    1.000
    H62      H        0.33485    0.49599    0.28175    1.000
