# CIF file generated by openbabel 3.1.0, see https://openbabel.org
data_I
_chemical_name_common ''
_cell_length_a 13.105
_cell_length_b 13.105
_cell_length_c 23.0122
_cell_angle_alpha 90
_cell_angle_beta 90
_cell_angle_gamma 120
loop_
    _atom_site_label
    _atom_site_type_symbol
    _atom_site_fract_x
    _atom_site_fract_y
    _atom_site_fract_z
    _atom_site_occupancy
    C0       C        0.70481    0.49743    0.45799    1.000
    H1       H        0.77829    0.57236    0.43645    1.000
    H2       H        0.69028    0.41692    0.43656    1.000
    H3       H        0.73205    0.49503    0.50272    1.000
    C4       C        0.59445    0.50755    0.45685    1.000
    C5       C        0.60189    0.61822    0.45692    1.000
    H6       H        0.68776    0.69749    0.45647    1.000
    C7       C        0.50023    0.62775    0.45746    1.000
    H8       H        0.50796    0.71401    0.45747    1.000
    C9       C        0.38891    0.52633    0.45784    1.000
    H10      H        0.31009    0.53350    0.45827    1.000
    C11      C        0.48212    0.40646    0.45692    1.000
    H12      H        0.47435    0.32008    0.45646    1.000
    C13      C        0.38022    0.41552    0.45745    1.000
    H14      H        0.29444    0.33637    0.45745    1.000
