# CIF file generated by openbabel 3.1.0, see https://openbabel.org
data_I
_chemical_name_common ''
_cell_length_a 13.105
_cell_length_b 13.105
_cell_length_c 23.0122
_cell_angle_alpha 90
_cell_angle_beta 90
_cell_angle_gamma 120
loop_
    _atom_site_label
    _atom_site_type_symbol
    _atom_site_fract_x
    _atom_site_fract_y
    _atom_site_fract_z
    _atom_site_occupancy
    Mo0      Mo       0.16651    0.08322    0.06379    1.000
    S1       S        0.08291    0.16642    0.99491    1.000
    S2       S        0.08349    0.16679    0.13289    1.000
    Mo3      Mo       0.41655    0.08323    0.06375    1.000
    S4       S        0.33297    0.16621    0.99456    1.000
    S5       S        0.33365    0.16695    0.13231    1.000
    Mo6      Mo       0.66639    0.08323    0.06409    1.000
    S7       S        0.58328    0.16648    0.99490    1.000
    S8       S        0.58294    0.16676    0.13297    1.000
    Mo9      Mo       0.91647    0.08320    0.06407    1.000
    S10      S        0.83311    0.16662    0.99520    1.000
    S11      S        0.83310    0.16652    0.13307    1.000
    Mo12     Mo       0.16645    0.33327    0.06375    1.000
    S13      S        0.08293    0.41673    0.99509    1.000
    S14      S        0.08325    0.41635    0.13309    1.000
    Mo15     Mo       0.41640    0.33328    0.06333    1.000
    S16      S        0.33294    0.41683    0.99462    1.000
    S17      S        0.33302    0.41615    0.13249    1.000
    Mo18     Mo       0.66634    0.33323    0.06380    1.000
    S19      S        0.58344    0.41679    0.99460    1.000
    S20      S        0.58258    0.41628    0.13228    1.000
    Mo21     Mo       0.91643    0.33327    0.06416    1.000
    S22      S        0.83337    0.41676    0.99515    1.000
    S23      S        0.83265    0.41637    0.13314    1.000
    Mo24     Mo       0.16645    0.58316    0.06421    1.000
    S25      S        0.08305    0.66650    0.99530    1.000
    S26      S        0.08313    0.66659    0.13316    1.000
    Mo27     Mo       0.41641    0.58311    0.06394    1.000
    S28      S        0.33302    0.66662    0.99519    1.000
    S29      S        0.33323    0.66637    0.13315    1.000
    Mo30     Mo       0.66635    0.58317    0.06388    1.000
    S31      S        0.58312    0.66671    0.99502    1.000
    S32      S        0.58297    0.66624    0.13305    1.000
    Mo33     Mo       0.91634    0.58319    0.06424    1.000
    S34      S        0.83332    0.66665    0.99517    1.000
    S35      S        0.83273    0.66634    0.13318    1.000
    Mo36     Mo       0.16645    0.83328    0.06417    1.000
    S37      S        0.08290    0.91626    0.99511    1.000
    S38      S        0.08328    0.91690    0.13309    1.000
    Mo39     Mo       0.41642    0.83319    0.06419    1.000
    S40      S        0.33297    0.91622    0.99509    1.000
    S41      S        0.33325    0.91691    0.13306    1.000
    Mo42     Mo       0.66636    0.83314    0.06412    1.000
    S43      S        0.58303    0.91649    0.99520    1.000
    S44      S        0.58313    0.91658    0.13314    1.000
    Mo45     Mo       0.91640    0.83319    0.06419    1.000
    S46      S        0.83304    0.91644    0.99520    1.000
    S47      S        0.83306    0.91657    0.13312    1.000
    C48      C        0.24446    0.15850    0.28788    1.000
    H49      H        0.17472    0.16938    0.30763    1.000
    H50      H        0.25282    0.09172    0.31245    1.000
    H51      H        0.21520    0.12344    0.24401    1.000
    C52      C        0.36022    0.27426    0.28617    1.000
    C53      C        0.36196    0.38228    0.28473    1.000
    H54      H        0.27934    0.38266    0.28543    1.000
    C55      C        0.46853    0.48932    0.28252    1.000
    H56      H        0.46771    0.57164    0.28152    1.000
    C57      C        0.57565    0.49013    0.28181    1.000
    H58      H        0.65824    0.57287    0.27990    1.000
    C59      C        0.46861    0.27639    0.28537    1.000
    H60      H        0.46939    0.19396    0.28654    1.000
    C61      C        0.57531    0.38313    0.28335    1.000
    H62      H        0.65789    0.38279    0.28294    1.000
