# CIF file generated by openbabel 3.1.0, see https://openbabel.org
data_I
_chemical_name_common ''
_cell_length_a 13.105
_cell_length_b 13.105
_cell_length_c 23.0122
_cell_angle_alpha 90
_cell_angle_beta 90
_cell_angle_gamma 120
loop_
    _atom_site_label
    _atom_site_type_symbol
    _atom_site_fract_x
    _atom_site_fract_y
    _atom_site_fract_z
    _atom_site_occupancy
    Mo0      Mo       0.16648    0.08399    0.07112    1.000
    S1       S        0.08309    0.16705    0.00197    1.000
    S2       S        0.08310    0.16743    0.13994    1.000
    Mo3      Mo       0.41644    0.08400    0.07117    1.000
    S4       S        0.33318    0.16736    0.00223    1.000
    S5       S        0.33312    0.16738    0.14022    1.000
    Mo6      Mo       0.66640    0.08394    0.07104    1.000
    S7       S        0.58295    0.16716    0.00208    1.000
    S8       S        0.58324    0.16740    0.14005    1.000
    Mo9      Mo       0.91644    0.08390    0.07097    1.000
    S10      S        0.83305    0.16728    0.00207    1.000
    S11      S        0.83312    0.16723    0.13997    1.000
    Mo12     Mo       0.16632    0.33388    0.07077    1.000
    S13      S        0.08295    0.41736    0.00197    1.000
    S14      S        0.08316    0.41715    0.13996    1.000
    Mo15     Mo       0.41643    0.33403    0.07124    1.000
    S16      S        0.33321    0.41720    0.00201    1.000
    S17      S        0.33240    0.41690    0.13997    1.000
    Mo18     Mo       0.66642    0.33391    0.07092    1.000
    S19      S        0.58295    0.41722    0.00206    1.000
    S20      S        0.58324    0.41703    0.14003    1.000
    Mo21     Mo       0.91641    0.33393    0.07103    1.000
    S22      S        0.83317    0.41736    0.00208    1.000
    S23      S        0.83295    0.41709    0.14004    1.000
    Mo24     Mo       0.16625    0.58387    0.07105    1.000
    S25      S        0.08304    0.66734    0.00217    1.000
    S26      S        0.08305    0.66717    0.14012    1.000
    Mo27     Mo       0.41626    0.58371    0.07110    1.000
    S28      S        0.33304    0.66723    0.00215    1.000
    S29      S        0.33292    0.66730    0.13995    1.000
    Mo30     Mo       0.66637    0.58375    0.07112    1.000
    S31      S        0.58304    0.66709    0.00209    1.000
    S32      S        0.58334    0.66778    0.13982    1.000
    Mo33     Mo       0.91639    0.58388    0.07116    1.000
    S34      S        0.83307    0.66716    0.00219    1.000
    S35      S        0.83297    0.66717    0.14015    1.000
    Mo36     Mo       0.16641    0.83391    0.07118    1.000
    S37      S        0.08314    0.91723    0.00220    1.000
    S38      S        0.08305    0.91731    0.14009    1.000
    Mo39     Mo       0.41646    0.83406    0.07105    1.000
    S40      S        0.33301    0.91732    0.00219    1.000
    S41      S        0.33315    0.91730    0.14012    1.000
    Mo42     Mo       0.66652    0.83414    0.07082    1.000
    S43      S        0.58298    0.91737    0.00198    1.000
    S44      S        0.58317    0.91722    0.13998    1.000
    Mo45     Mo       0.91637    0.83389    0.07111    1.000
    S46      S        0.83326    0.91724    0.00198    1.000
    S47      S        0.83298    0.91729    0.13996    1.000
    C48      C        0.41827    0.57394    0.29505    1.000
    H49      H        0.40417    0.60675    0.25410    1.000
    H50      H        0.46796    0.64643    0.32501    1.000
    H51      H        0.33329    0.51269    0.31426    1.000
    S52      S        0.49429    0.48847    0.28322    1.000
    H53      H        0.59549    0.57820    0.26172    1.000
