# CIF file generated by openbabel 3.1.0, see https://openbabel.org
data_I
_chemical_name_common ''
_cell_length_a 13.105
_cell_length_b 13.105
_cell_length_c 23.0122
_cell_angle_alpha 90
_cell_angle_beta 90
_cell_angle_gamma 120
loop_
    _atom_site_label
    _atom_site_type_symbol
    _atom_site_fract_x
    _atom_site_fract_y
    _atom_site_fract_z
    _atom_site_occupancy
    Mo0      Mo       0.16760    0.08295    0.07012    1.000
    S1       S        0.08392    0.16617    0.00127    1.000
    S2       S        0.08433    0.16629    0.13928    1.000
    Mo3      Mo       0.41747    0.08298    0.06993    1.000
    S4       S        0.33400    0.16618    0.00095    1.000
    S5       S        0.33426    0.16621    0.13898    1.000
    Mo6      Mo       0.66749    0.08288    0.07026    1.000
    S7       S        0.58431    0.16614    0.00106    1.000
    S8       S        0.58396    0.16635    0.13906    1.000
    Mo9      Mo       0.91746    0.08282    0.07034    1.000
    S10      S        0.83416    0.16614    0.00135    1.000
    S11      S        0.83404    0.16613    0.13932    1.000
    Mo12     Mo       0.16737    0.33289    0.07019    1.000
    S13      S        0.08396    0.41622    0.00133    1.000
    S14      S        0.08415    0.41620    0.13932    1.000
    Mo15     Mo       0.41725    0.33270    0.07004    1.000
    S16      S        0.33387    0.41618    0.00112    1.000
    S17      S        0.33411    0.41621    0.13884    1.000
    Mo18     Mo       0.66748    0.33283    0.06999    1.000
    S19      S        0.58404    0.41618    0.00102    1.000
    S20      S        0.58408    0.41611    0.13886    1.000
    Mo21     Mo       0.91740    0.33280    0.07032    1.000
    S22      S        0.83434    0.41626    0.00120    1.000
    S23      S        0.83390    0.41617    0.13914    1.000
    Mo24     Mo       0.16743    0.58290    0.07031    1.000
    S25      S        0.08421    0.66618    0.00127    1.000
    S26      S        0.08409    0.66631    0.13921    1.000
    Mo27     Mo       0.41735    0.58286    0.07005    1.000
    S28      S        0.33402    0.66633    0.00126    1.000
    S29      S        0.33420    0.66616    0.13925    1.000
    Mo30     Mo       0.66743    0.58288    0.07002    1.000
    S31      S        0.58414    0.66641    0.00117    1.000
    S32      S        0.58393    0.66592    0.13917    1.000
    Mo33     Mo       0.91746    0.58287    0.07019    1.000
    S34      S        0.83420    0.66623    0.00116    1.000
    S35      S        0.83395    0.66603    0.13912    1.000
    Mo36     Mo       0.16756    0.83291    0.07020    1.000
    S37      S        0.08423    0.91623    0.00121    1.000
    S38      S        0.08438    0.91635    0.13917    1.000
    Mo39     Mo       0.41760    0.83294    0.07026    1.000
    S40      S        0.33415    0.91605    0.00117    1.000
    S41      S        0.33432    0.91653    0.13911    1.000
    Mo42     Mo       0.66754    0.83288    0.07030    1.000
    S43      S        0.58430    0.91625    0.00132    1.000
    S44      S        0.58423    0.91626    0.13926    1.000
    Mo45     Mo       0.91758    0.83281    0.07023    1.000
    S46      S        0.83426    0.91618    0.00136    1.000
    S47      S        0.83426    0.91606    0.13928    1.000
    C48      C        0.32536    0.41673    0.30418    1.000
    H49      H        0.30315    0.44882    0.26524    1.000
    H50      H        0.37954    0.48938    0.33328    1.000
    H51      H        0.24474    0.35429    0.32650    1.000
    S52      S        0.40091    0.33379    0.28510    1.000
    H53      H        0.49807    0.42511    0.26141    1.000
