# CIF file generated by openbabel 3.1.0, see https://openbabel.org
data_I
_chemical_name_common ''
_cell_length_a 13.105
_cell_length_b 13.105
_cell_length_c 23.0122
_cell_angle_alpha 90
_cell_angle_beta 90
_cell_angle_gamma 120
loop_
    _atom_site_label
    _atom_site_type_symbol
    _atom_site_fract_x
    _atom_site_fract_y
    _atom_site_fract_z
    _atom_site_occupancy
    Mo0      Mo       0.16570    0.08176    0.07097    1.000
    S1       S        0.08224    0.16501    0.00202    1.000
    S2       S        0.08237    0.16505    0.13999    1.000
    Mo3      Mo       0.41565    0.08161    0.07101    1.000
    S4       S        0.33234    0.16491    0.00196    1.000
    S5       S        0.33236    0.16509    0.13994    1.000
    Mo6      Mo       0.66568    0.08169    0.07101    1.000
    S7       S        0.58237    0.16504    0.00208    1.000
    S8       S        0.58231    0.16490    0.14000    1.000
    Mo9      Mo       0.91564    0.08165    0.07104    1.000
    S10      S        0.83237    0.16505    0.00208    1.000
    S11      S        0.83227    0.16496    0.14001    1.000
    Mo12     Mo       0.16560    0.33161    0.07096    1.000
    S13      S        0.08230    0.41508    0.00206    1.000
    S14      S        0.08242    0.41503    0.14005    1.000
    Mo15     Mo       0.41562    0.33159    0.07083    1.000
    S16      S        0.33224    0.41499    0.00196    1.000
    S17      S        0.33205    0.41439    0.13986    1.000
    Mo18     Mo       0.66568    0.33164    0.07108    1.000
    S19      S        0.58251    0.41504    0.00202    1.000
    S20      S        0.58220    0.41502    0.13998    1.000
    Mo21     Mo       0.91569    0.33168    0.07107    1.000
    S22      S        0.83234    0.41498    0.00213    1.000
    S23      S        0.83237    0.41500    0.14007    1.000
    Mo24     Mo       0.16565    0.58165    0.07105    1.000
    S25      S        0.08232    0.66497    0.00208    1.000
    S26      S        0.08240    0.66506    0.14002    1.000
    Mo27     Mo       0.41539    0.58137    0.07119    1.000
    S28      S        0.33225    0.66476    0.00209    1.000
    S29      S        0.33218    0.66498    0.14005    1.000
    Mo30     Mo       0.66577    0.58161    0.07097    1.000
    S31      S        0.58213    0.66483    0.00214    1.000
    S32      S        0.58253    0.66498    0.13990    1.000
    Mo33     Mo       0.91569    0.58166    0.07107    1.000
    S34      S        0.83242    0.66502    0.00205    1.000
    S35      S        0.83235    0.66505    0.13999    1.000
    Mo36     Mo       0.16565    0.83167    0.07101    1.000
    S37      S        0.08236    0.91507    0.00202    1.000
    S38      S        0.08242    0.91517    0.13994    1.000
    Mo39     Mo       0.41556    0.83152    0.07091    1.000
    S40      S        0.33225    0.91494    0.00203    1.000
    S41      S        0.33231    0.91486    0.13998    1.000
    Mo42     Mo       0.66571    0.83170    0.07095    1.000
    S43      S        0.58237    0.91504    0.00201    1.000
    S44      S        0.58222    0.91488    0.13993    1.000
    Mo45     Mo       0.91569    0.83170    0.07101    1.000
    S46      S        0.83236    0.91500    0.00204    1.000
    S47      S        0.83229    0.91494    0.14000    1.000
    C48      C        0.48669    0.72129    0.29540    1.000
    H49      H        0.51859    0.76798    0.25433    1.000
    H50      H        0.55978    0.74453    0.32503    1.000
    H51      H        0.42554    0.74477    0.31495    1.000
    S52      S        0.40124    0.55981    0.28378    1.000
    H53      H        0.49046    0.54786    0.26192    1.000
