# CIF file generated by openbabel 3.1.0, see https://openbabel.org
data_I
_chemical_name_common ''
_cell_length_a 13.105
_cell_length_b 13.105
_cell_length_c 23.0122
_cell_angle_alpha 90
_cell_angle_beta 90
_cell_angle_gamma 120
loop_
    _atom_site_label
    _atom_site_type_symbol
    _atom_site_fract_x
    _atom_site_fract_y
    _atom_site_fract_z
    _atom_site_occupancy
    Mo0      Mo       0.16575    0.08314    0.07094    1.000
    S1       S        0.08264    0.16659    0.00193    1.000
    S2       S        0.08241    0.16649    0.13985    1.000
    Mo3      Mo       0.41578    0.08315    0.07086    1.000
    S4       S        0.33241    0.16651    0.00196    1.000
    S5       S        0.33252    0.16652    0.13988    1.000
    Mo6      Mo       0.66576    0.08311    0.07077    1.000
    S7       S        0.58230    0.16631    0.00178    1.000
    S8       S        0.58255    0.16655    0.13973    1.000
    Mo9      Mo       0.91582    0.08323    0.07080    1.000
    S10      S        0.83251    0.16662    0.00186    1.000
    S11      S        0.83239    0.16648    0.13975    1.000
    Mo12     Mo       0.16582    0.33320    0.07093    1.000
    S13      S        0.08246    0.41649    0.00197    1.000
    S14      S        0.08234    0.41644    0.13987    1.000
    Mo15     Mo       0.41574    0.33314    0.07088    1.000
    S16      S        0.33252    0.41660    0.00200    1.000
    S17      S        0.33260    0.41659    0.13996    1.000
    Mo18     Mo       0.66582    0.33305    0.07060    1.000
    S19      S        0.58239    0.41658    0.00185    1.000
    S20      S        0.58249    0.41609    0.13953    1.000
    Mo21     Mo       0.91574    0.33321    0.07087    1.000
    S22      S        0.83262    0.41665    0.00183    1.000
    S23      S        0.83220    0.41645    0.13980    1.000
    Mo24     Mo       0.16577    0.58314    0.07092    1.000
    S25      S        0.08246    0.66652    0.00195    1.000
    S26      S        0.08238    0.66645    0.13987    1.000
    Mo27     Mo       0.41602    0.58331    0.07096    1.000
    S28      S        0.33248    0.66645    0.00199    1.000
    S29      S        0.33253    0.66654    0.13990    1.000
    Mo30     Mo       0.66562    0.58324    0.07093    1.000
    S31      S        0.58237    0.66637    0.00180    1.000
    S32      S        0.58268    0.66690    0.13983    1.000
    Mo33     Mo       0.91573    0.58317    0.07088    1.000
    S34      S        0.83231    0.66645    0.00196    1.000
    S35      S        0.83238    0.66662    0.13986    1.000
    Mo36     Mo       0.16571    0.83314    0.07093    1.000
    S37      S        0.08239    0.91647    0.00197    1.000
    S38      S        0.08228    0.91642    0.13987    1.000
    Mo39     Mo       0.41577    0.83315    0.07089    1.000
    S40      S        0.33234    0.91644    0.00196    1.000
    S41      S        0.33247    0.91653    0.13984    1.000
    Mo42     Mo       0.66572    0.83309    0.07067    1.000
    S43      S        0.58230    0.91642    0.00182    1.000
    S44      S        0.58254    0.91645    0.13977    1.000
    Mo45     Mo       0.91571    0.83319    0.07086    1.000
    S46      S        0.83255    0.91653    0.00181    1.000
    S47      S        0.83230    0.91650    0.13975    1.000
    C48      C        0.70157    0.51384    0.29513    1.000
    H49      H        0.73634    0.51499    0.25201    1.000
    H50      H        0.68477    0.43486    0.31857    1.000
    H51      H        0.76527    0.59128    0.31918    1.000
    S52      S        0.56583    0.52430    0.29083    1.000
    H53      H        0.49577    0.41698    0.26712    1.000
