# CIF file generated by openbabel 3.1.0, see https://openbabel.org
data_I
_chemical_name_common ''
_cell_length_a 13.105
_cell_length_b 13.105
_cell_length_c 23.0122
_cell_angle_alpha 90
_cell_angle_beta 90
_cell_angle_gamma 120
loop_
    _atom_site_label
    _atom_site_type_symbol
    _atom_site_fract_x
    _atom_site_fract_y
    _atom_site_fract_z
    _atom_site_occupancy
    Mo0      Mo       0.16739    0.08375    0.07091    1.000
    S1       S        0.08416    0.16719    0.00196    1.000
    S2       S        0.08416    0.16720    0.13989    1.000
    Mo3      Mo       0.41735    0.08366    0.07086    1.000
    S4       S        0.33399    0.16697    0.00190    1.000
    S5       S        0.33413    0.16704    0.13983    1.000
    Mo6      Mo       0.66735    0.08378    0.07085    1.000
    S7       S        0.58403    0.16714    0.00190    1.000
    S8       S        0.58401    0.16716    0.13982    1.000
    Mo9      Mo       0.91749    0.08384    0.07090    1.000
    S10      S        0.83408    0.16708    0.00192    1.000
    S11      S        0.83400    0.16708    0.13981    1.000
    Mo12     Mo       0.16745    0.33379    0.07091    1.000
    S13      S        0.08413    0.41711    0.00195    1.000
    S14      S        0.08407    0.41705    0.13989    1.000
    Mo15     Mo       0.41758    0.33373    0.07084    1.000
    S16      S        0.33413    0.41706    0.00194    1.000
    S17      S        0.33423    0.41700    0.13984    1.000
    Mo18     Mo       0.66724    0.33383    0.07083    1.000
    S19      S        0.58405    0.41718    0.00184    1.000
    S20      S        0.58392    0.41695    0.13993    1.000
    Mo21     Mo       0.91738    0.33375    0.07089    1.000
    S22      S        0.83403    0.41715    0.00195    1.000
    S23      S        0.83386    0.41695    0.13988    1.000
    Mo24     Mo       0.16744    0.58369    0.07094    1.000
    S25      S        0.08403    0.66696    0.00199    1.000
    S26      S        0.08410    0.66697    0.13993    1.000
    Mo27     Mo       0.41744    0.58376    0.07084    1.000
    S28      S        0.33406    0.66700    0.00193    1.000
    S29      S        0.33421    0.66706    0.13989    1.000
    Mo30     Mo       0.66731    0.58353    0.07100    1.000
    S31      S        0.58418    0.66706    0.00191    1.000
    S32      S        0.58431    0.66762    0.13956    1.000
    Mo33     Mo       0.91739    0.58368    0.07099    1.000
    S34      S        0.83399    0.66698    0.00206    1.000
    S35      S        0.83394    0.66696    0.14002    1.000
    Mo36     Mo       0.16736    0.83362    0.07094    1.000
    S37      S        0.08397    0.91695    0.00201    1.000
    S38      S        0.08404    0.91702    0.13988    1.000
    Mo39     Mo       0.41740    0.83368    0.07087    1.000
    S40      S        0.33394    0.91691    0.00192    1.000
    S41      S        0.33409    0.91700    0.13984    1.000
    Mo42     Mo       0.66752    0.83403    0.07069    1.000
    S43      S        0.58397    0.91713    0.00184    1.000
    S44      S        0.58406    0.91706    0.13981    1.000
    Mo45     Mo       0.91731    0.83367    0.07096    1.000
    S46      S        0.83425    0.91717    0.00192    1.000
    S47      S        0.83397    0.91711    0.13985    1.000
    C48      C        0.46531    0.57011    0.29476    1.000
    H49      H        0.43090    0.56839    0.25145    1.000
    H50      H        0.47959    0.64818    0.31828    1.000
    H51      H        0.40252    0.49175    0.31853    1.000
    S52      S        0.60344    0.56388    0.29103    1.000
    H53      H        0.67133    0.67145    0.26713    1.000
