# CIF file generated by openbabel 3.1.0, see https://openbabel.org
data_I
_chemical_name_common ''
_cell_length_a 13.105
_cell_length_b 13.105
_cell_length_c 23.0122
_cell_angle_alpha 90
_cell_angle_beta 90
_cell_angle_gamma 120
loop_
    _atom_site_label
    _atom_site_type_symbol
    _atom_site_fract_x
    _atom_site_fract_y
    _atom_site_fract_z
    _atom_site_occupancy
    Mo0      Mo       0.16397    0.08307    0.07000    1.000
    S1       S        0.08062    0.16636    0.00100    1.000
    S2       S        0.08064    0.16644    0.13894    1.000
    Mo3      Mo       0.41397    0.08303    0.07004    1.000
    S4       S        0.33064    0.16629    0.00104    1.000
    S5       S        0.33068    0.16648    0.13896    1.000
    Mo6      Mo       0.66398    0.08308    0.07003    1.000
    S7       S        0.58060    0.16633    0.00106    1.000
    S8       S        0.58065    0.16643    0.13901    1.000
    Mo9      Mo       0.91394    0.08303    0.06997    1.000
    S10      S        0.83062    0.16642    0.00106    1.000
    S11      S        0.83066    0.16638    0.13898    1.000
    Mo12     Mo       0.16395    0.33306    0.06992    1.000
    S13      S        0.08050    0.41631    0.00097    1.000
    S14      S        0.08077    0.41652    0.13891    1.000
    Mo15     Mo       0.41398    0.33307    0.06993    1.000
    S16      S        0.33048    0.41610    0.00084    1.000
    S17      S        0.33078    0.41663    0.13885    1.000
    Mo18     Mo       0.66391    0.33306    0.06997    1.000
    S19      S        0.58056    0.41622    0.00088    1.000
    S20      S        0.58063    0.41664    0.13889    1.000
    Mo21     Mo       0.91395    0.33307    0.07002    1.000
    S22      S        0.83061    0.41634    0.00103    1.000
    S23      S        0.83057    0.41642    0.13896    1.000
    Mo24     Mo       0.16394    0.58305    0.06984    1.000
    S25      S        0.08060    0.66646    0.00097    1.000
    S26      S        0.08066    0.66632    0.13892    1.000
    Mo27     Mo       0.41412    0.58301    0.06957    1.000
    S28      S        0.33061    0.66646    0.00079    1.000
    S29      S        0.33079    0.66628    0.13857    1.000
    Mo30     Mo       0.66393    0.58306    0.06968    1.000
    S31      S        0.58072    0.66636    0.00051    1.000
    S32      S        0.58058    0.66621    0.13833    1.000
    Mo33     Mo       0.91396    0.58303    0.06996    1.000
    S34      S        0.83083    0.66642    0.00089    1.000
    S35      S        0.83042    0.66631    0.13887    1.000
    Mo36     Mo       0.16393    0.83304    0.07000    1.000
    S37      S        0.08070    0.91643    0.00102    1.000
    S38      S        0.08052    0.91636    0.13894    1.000
    Mo39     Mo       0.41397    0.83307    0.06986    1.000
    S40      S        0.33055    0.91645    0.00102    1.000
    S41      S        0.33062    0.91624    0.13896    1.000
    Mo42     Mo       0.66386    0.83286    0.06966    1.000
    S43      S        0.58064    0.91659    0.00092    1.000
    S44      S        0.58059    0.91608    0.13893    1.000
    Mo45     Mo       0.91392    0.83300    0.06992    1.000
    S46      S        0.83074    0.91646    0.00090    1.000
    S47      S        0.83034    0.91611    0.13889    1.000
    C48      C        0.41850    0.66559    0.30406    1.000
    H49      H        0.38009    0.65558    0.26102    1.000
    H50      H        0.42317    0.74106    0.32631    1.000
    H51      H        0.36460    0.58620    0.32936    1.000
    S52      S        0.56635    0.67991    0.29949    1.000
    H53      H        0.61842    0.78124    0.26859    1.000
