# CIF file generated by openbabel 3.1.0, see https://openbabel.org
data_I
_chemical_name_common ''
_cell_length_a 13.105
_cell_length_b 13.105
_cell_length_c 23.0122
_cell_angle_alpha 90
_cell_angle_beta 90
_cell_angle_gamma 120
loop_
    _atom_site_label
    _atom_site_type_symbol
    _atom_site_fract_x
    _atom_site_fract_y
    _atom_site_fract_z
    _atom_site_occupancy
    Mo0      Mo       0.16670    0.08418    0.07104    1.000
    S1       S        0.08330    0.16727    0.00197    1.000
    S2       S        0.08364    0.16782    0.14002    1.000
    Mo3      Mo       0.41672    0.08419    0.07102    1.000
    S4       S        0.33321    0.16719    0.00195    1.000
    S5       S        0.33349    0.16785    0.13995    1.000
    Mo6      Mo       0.66671    0.08409    0.07103    1.000
    S7       S        0.58345    0.16752    0.00211    1.000
    S8       S        0.58335    0.16738    0.14004    1.000
    Mo9      Mo       0.91683    0.08422    0.07104    1.000
    S10      S        0.83340    0.16750    0.00211    1.000
    S11      S        0.83338    0.16742    0.14004    1.000
    Mo12     Mo       0.16679    0.33418    0.07075    1.000
    S13      S        0.08310    0.41728    0.00189    1.000
    S14      S        0.08371    0.41751    0.13995    1.000
    Mo15     Mo       0.41665    0.33420    0.07064    1.000
    S16      S        0.33323    0.41729    0.00144    1.000
    S17      S        0.33352    0.41772    0.13924    1.000
    Mo18     Mo       0.66672    0.33411    0.07109    1.000
    S19      S        0.58358    0.41734    0.00188    1.000
    S20      S        0.58305    0.41752    0.13991    1.000
    Mo21     Mo       0.91675    0.33413    0.07107    1.000
    S22      S        0.83334    0.41736    0.00212    1.000
    S23      S        0.83346    0.41756    0.14006    1.000
    Mo24     Mo       0.16658    0.58400    0.07076    1.000
    S25      S        0.08323    0.66748    0.00195    1.000
    S26      S        0.08349    0.66735    0.13990    1.000
    Mo27     Mo       0.41675    0.58417    0.07034    1.000
    S28      S        0.33316    0.66765    0.00164    1.000
    S29      S        0.33331    0.66735    0.13953    1.000
    Mo30     Mo       0.66677    0.58408    0.07077    1.000
    S31      S        0.58383    0.66767    0.00164    1.000
    S32      S        0.58337    0.66739    0.13952    1.000
    Mo33     Mo       0.91671    0.58412    0.07101    1.000
    S34      S        0.83357    0.66750    0.00196    1.000
    S35      S        0.83319    0.66736    0.13991    1.000
    Mo36     Mo       0.16674    0.83411    0.07098    1.000
    S37      S        0.08336    0.91745    0.00209    1.000
    S38      S        0.08336    0.91741    0.13998    1.000
    Mo39     Mo       0.41671    0.83421    0.07079    1.000
    S40      S        0.33339    0.91767    0.00197    1.000
    S41      S        0.33343    0.91740    0.13994    1.000
    Mo42     Mo       0.66682    0.83424    0.07079    1.000
    S43      S        0.58346    0.91761    0.00190    1.000
    S44      S        0.58327    0.91722    0.13986    1.000
    Mo45     Mo       0.91668    0.83411    0.07100    1.000
    S46      S        0.83363    0.91770    0.00198    1.000
    S47      S        0.83330    0.91743    0.13995    1.000
    C48      C        0.41376    0.57394    0.29169    1.000
    H49      H        0.42158    0.59606    0.24571    1.000
    H50      H        0.50062    0.61137    0.31141    1.000
    H51      H        0.36390    0.60899    0.31332    1.000
    S52      S        0.32868    0.41216    0.30250    1.000
    H53      H        0.40690    0.38777    0.27687    1.000
