# CIF file generated by openbabel 3.1.0, see https://openbabel.org
data_I
_chemical_name_common ''
_cell_length_a 13.105
_cell_length_b 13.105
_cell_length_c 23.0122
_cell_angle_alpha 90
_cell_angle_beta 90
_cell_angle_gamma 120
loop_
    _atom_site_label
    _atom_site_type_symbol
    _atom_site_fract_x
    _atom_site_fract_y
    _atom_site_fract_z
    _atom_site_occupancy
    Mo0      Mo       0.16586    0.08308    0.07122    1.000
    S1       S        0.08247    0.16629    0.00221    1.000
    S2       S        0.08239    0.16628    0.14018    1.000
    Mo3      Mo       0.41564    0.08292    0.07132    1.000
    S4       S        0.33251    0.16627    0.00226    1.000
    S5       S        0.33263    0.16665    0.14025    1.000
    Mo6      Mo       0.66564    0.08276    0.07105    1.000
    S7       S        0.58215    0.16610    0.00221    1.000
    S8       S        0.58259    0.16625    0.14004    1.000
    Mo9      Mo       0.91573    0.08294    0.07114    1.000
    S10      S        0.83238    0.16616    0.00213    1.000
    S11      S        0.83227    0.16615    0.14007    1.000
    Mo12     Mo       0.16583    0.33290    0.07120    1.000
    S13      S        0.08255    0.41627    0.00221    1.000
    S14      S        0.08239    0.41610    0.14015    1.000
    Mo15     Mo       0.41593    0.33301    0.07107    1.000
    S16      S        0.33246    0.41620    0.00221    1.000
    S17      S        0.33271    0.41623    0.14014    1.000
    Mo18     Mo       0.66570    0.33298    0.07104    1.000
    S19      S        0.58241    0.41617    0.00184    1.000
    S20      S        0.58264    0.41693    0.13963    1.000
    Mo21     Mo       0.91582    0.33278    0.07107    1.000
    S22      S        0.83250    0.41625    0.00215    1.000
    S23      S        0.83249    0.41605    0.13999    1.000
    Mo24     Mo       0.16565    0.58284    0.07126    1.000
    S25      S        0.08250    0.66636    0.00232    1.000
    S26      S        0.08214    0.66610    0.14023    1.000
    Mo27     Mo       0.41570    0.58286    0.07114    1.000
    S28      S        0.33219    0.66621    0.00227    1.000
    S29      S        0.33234    0.66606    0.14021    1.000
    Mo30     Mo       0.66585    0.58312    0.07065    1.000
    S31      S        0.58216    0.66634    0.00200    1.000
    S32      S        0.58253    0.66606    0.13995    1.000
    Mo33     Mo       0.91575    0.58297    0.07113    1.000
    S34      S        0.83285    0.66660    0.00200    1.000
    S35      S        0.83226    0.66645    0.13990    1.000
    Mo36     Mo       0.16564    0.83295    0.07134    1.000
    S37      S        0.08264    0.91646    0.00224    1.000
    S38      S        0.08236    0.91646    0.14022    1.000
    Mo39     Mo       0.41553    0.83281    0.07127    1.000
    S40      S        0.33220    0.91620    0.00237    1.000
    S41      S        0.33230    0.91625    0.14033    1.000
    Mo42     Mo       0.66562    0.83289    0.07107    1.000
    S43      S        0.58201    0.91604    0.00216    1.000
    S44      S        0.58231    0.91616    0.14011    1.000
    Mo45     Mo       0.91587    0.83321    0.07107    1.000
    S46      S        0.83240    0.91641    0.00213    1.000
    S47      S        0.83228    0.91626    0.14006    1.000
    C48      C        0.70381    0.45189    0.29203    1.000
    H49      H        0.73681    0.47976    0.24805    1.000
    H50      H        0.76742    0.44105    0.31777    1.000
    H51      H        0.68832    0.51811    0.31223    1.000
    S52      S        0.55925    0.31373    0.29131    1.000
    H53      H        0.59763    0.24387    0.26847    1.000
