# CIF file generated by openbabel 3.1.0, see https://openbabel.org
data_I
_chemical_name_common ''
_cell_length_a 13.105
_cell_length_b 13.105
_cell_length_c 23.0122
_cell_angle_alpha 90
_cell_angle_beta 90
_cell_angle_gamma 120
loop_
    _atom_site_label
    _atom_site_type_symbol
    _atom_site_fract_x
    _atom_site_fract_y
    _atom_site_fract_z
    _atom_site_occupancy
    Mo0      Mo       0.16760    0.08378    0.07035    1.000
    S1       S        0.08423    0.16691    0.00123    1.000
    S2       S        0.08422    0.16725    0.13922    1.000
    Mo3      Mo       0.41766    0.08384    0.07028    1.000
    S4       S        0.33419    0.16706    0.00136    1.000
    S5       S        0.33441    0.16732    0.13935    1.000
    Mo6      Mo       0.66753    0.08372    0.07006    1.000
    S7       S        0.58406    0.16695    0.00109    1.000
    S8       S        0.58448    0.16729    0.13907    1.000
    Mo9      Mo       0.91757    0.08372    0.07017    1.000
    S10      S        0.83426    0.16708    0.00116    1.000
    S11      S        0.83405    0.16694    0.13908    1.000
    Mo12     Mo       0.16750    0.33370    0.07004    1.000
    S13      S        0.08420    0.41722    0.00126    1.000
    S14      S        0.08420    0.41683    0.13926    1.000
    Mo15     Mo       0.41775    0.33386    0.07027    1.000
    S16      S        0.33427    0.41705    0.00121    1.000
    S17      S        0.33398    0.41687    0.13895    1.000
    Mo18     Mo       0.66763    0.33378    0.06993    1.000
    S19      S        0.58414    0.41703    0.00104    1.000
    S20      S        0.58449    0.41687    0.13904    1.000
    Mo21     Mo       0.91754    0.33369    0.07020    1.000
    S22      S        0.83459    0.41738    0.00120    1.000
    S23      S        0.83407    0.41693    0.13915    1.000
    Mo24     Mo       0.16755    0.58370    0.07039    1.000
    S25      S        0.08442    0.66722    0.00146    1.000
    S26      S        0.08422    0.66702    0.13939    1.000
    Mo27     Mo       0.41752    0.58364    0.07021    1.000
    S28      S        0.33410    0.66701    0.00136    1.000
    S29      S        0.33437    0.66697    0.13935    1.000
    Mo30     Mo       0.66753    0.58352    0.07015    1.000
    S31      S        0.58415    0.66695    0.00112    1.000
    S32      S        0.58453    0.66749    0.13890    1.000
    Mo33     Mo       0.91765    0.58379    0.07033    1.000
    S34      S        0.83434    0.66703    0.00129    1.000
    S35      S        0.83401    0.66689    0.13927    1.000
    Mo36     Mo       0.16768    0.83378    0.07046    1.000
    S37      S        0.08443    0.91706    0.00143    1.000
    S38      S        0.08424    0.91712    0.13936    1.000
    Mo39     Mo       0.41768    0.83373    0.07029    1.000
    S40      S        0.33417    0.91702    0.00142    1.000
    S41      S        0.33456    0.91724    0.13932    1.000
    Mo42     Mo       0.66773    0.83390    0.06994    1.000
    S43      S        0.58409    0.91703    0.00108    1.000
    S44      S        0.58451    0.91715    0.13907    1.000
    Mo45     Mo       0.91763    0.83367    0.07030    1.000
    S46      S        0.83460    0.91706    0.00118    1.000
    S47      S        0.83416    0.91704    0.13912    1.000
    C48      C        0.33083    0.42030    0.30408    1.000
    H49      H        0.27575    0.40345    0.26579    1.000
    H50      H        0.31925    0.47729    0.33446    1.000
    H51      H        0.30718    0.33713    0.32532    1.000
    S52      S        0.48780    0.48553    0.28335    1.000
    H53      H        0.50110    0.58674    0.26086    1.000
