# CIF file generated by openbabel 3.1.0, see https://openbabel.org
data_I
_chemical_name_common ''
_cell_length_a 13.105
_cell_length_b 13.105
_cell_length_c 23.0122
_cell_angle_alpha 90
_cell_angle_beta 90
_cell_angle_gamma 120
loop_
    _atom_site_label
    _atom_site_type_symbol
    _atom_site_fract_x
    _atom_site_fract_y
    _atom_site_fract_z
    _atom_site_occupancy
    Mo0      Mo       0.16651    0.08362    0.06795    1.000
    S1       S        0.08329    0.16686    0.99883    1.000
    S2       S        0.08309    0.16701    0.13678    1.000
    Mo3      Mo       0.41653    0.08360    0.06791    1.000
    S4       S        0.33323    0.16702    0.99905    1.000
    S5       S        0.33325    0.16694    0.13699    1.000
    Mo6      Mo       0.66650    0.08364    0.06770    1.000
    S7       S        0.58298    0.16684    0.99877    1.000
    S8       S        0.58334    0.16704    0.13673    1.000
    Mo9      Mo       0.91651    0.08360    0.06773    1.000
    S10      S        0.83324    0.16700    0.99877    1.000
    S11      S        0.83314    0.16689    0.13665    1.000
    Mo12     Mo       0.16647    0.33358    0.06769    1.000
    S13      S        0.08322    0.41708    0.99883    1.000
    S14      S        0.08314    0.41684    0.13679    1.000
    Mo15     Mo       0.41666    0.33370    0.06805    1.000
    S16      S        0.33337    0.41697    0.99896    1.000
    S17      S        0.33274    0.41666    0.13687    1.000
    Mo18     Mo       0.66650    0.33358    0.06760    1.000
    S19      S        0.58305    0.41704    0.99888    1.000
    S20      S        0.58348    0.41660    0.13680    1.000
    Mo21     Mo       0.91650    0.33362    0.06777    1.000
    S22      S        0.83330    0.41712    0.99882    1.000
    S23      S        0.83299    0.41674    0.13676    1.000
    Mo24     Mo       0.16643    0.58360    0.06789    1.000
    S25      S        0.08310    0.66696    0.99898    1.000
    S26      S        0.08310    0.66686    0.13690    1.000
    Mo27     Mo       0.41657    0.58360    0.06801    1.000
    S28      S        0.33315    0.66686    0.99897    1.000
    S29      S        0.33311    0.66712    0.13682    1.000
    Mo30     Mo       0.66638    0.58351    0.06805    1.000
    S31      S        0.58304    0.66666    0.99884    1.000
    S32      S        0.58362    0.66780    0.13666    1.000
    Mo33     Mo       0.91643    0.58357    0.06794    1.000
    S34      S        0.83306    0.66685    0.99903    1.000
    S35      S        0.83309    0.66692    0.13700    1.000
    Mo36     Mo       0.16645    0.83359    0.06795    1.000
    S37      S        0.08319    0.91694    0.99899    1.000
    S38      S        0.08308    0.91694    0.13689    1.000
    Mo39     Mo       0.41648    0.83367    0.06781    1.000
    S40      S        0.33301    0.91693    0.99894    1.000
    S41      S        0.33322    0.91694    0.13686    1.000
    Mo42     Mo       0.66653    0.83372    0.06748    1.000
    S43      S        0.58296    0.91698    0.99869    1.000
    S44      S        0.58329    0.91696    0.13667    1.000
    Mo45     Mo       0.91645    0.83358    0.06790    1.000
    S46      S        0.83338    0.91692    0.99874    1.000
    S47      S        0.83293    0.91693    0.13670    1.000
    C48      C        0.42928    0.58985    0.28483    1.000
    H49      H        0.40094    0.58387    0.32974    1.000
    H50      H        0.35368    0.55227    0.25567    1.000
    H51      H        0.48757    0.68194    0.27343    1.000
    S52      S        0.51739    0.51597    0.27537    1.000
    H53      H        0.42934    0.40503    0.28609    1.000
