# CIF file generated by openbabel 3.1.0, see https://openbabel.org
data_I
_chemical_name_common ''
_cell_length_a 13.105
_cell_length_b 13.105
_cell_length_c 23.0122
_cell_angle_alpha 90
_cell_angle_beta 90
_cell_angle_gamma 120
loop_
    _atom_site_label
    _atom_site_type_symbol
    _atom_site_fract_x
    _atom_site_fract_y
    _atom_site_fract_z
    _atom_site_occupancy
    Mo0      Mo       0.16843    0.08499    0.06714    1.000
    S1       S        0.08502    0.16799    0.99798    1.000
    S2       S        0.08512    0.16851    0.13598    1.000
    Mo3      Mo       0.41844    0.08500    0.06720    1.000
    S4       S        0.33511    0.16828    0.99824    1.000
    S5       S        0.33516    0.16852    0.13620    1.000
    Mo6      Mo       0.66840    0.08495    0.06701    1.000
    S7       S        0.58490    0.16815    0.99809    1.000
    S8       S        0.58525    0.16842    0.13601    1.000
    Mo9      Mo       0.91840    0.08492    0.06699    1.000
    S10      S        0.83506    0.16830    0.99807    1.000
    S11      S        0.83508    0.16827    0.13592    1.000
    Mo12     Mo       0.16829    0.33490    0.06668    1.000
    S13      S        0.08500    0.41853    0.99799    1.000
    S14      S        0.08516    0.41816    0.13597    1.000
    Mo15     Mo       0.41852    0.33510    0.06710    1.000
    S16      S        0.33524    0.41833    0.99789    1.000
    S17      S        0.33458    0.41812    0.13560    1.000
    Mo18     Mo       0.66842    0.33497    0.06688    1.000
    S19      S        0.58506    0.41838    0.99804    1.000
    S20      S        0.58528    0.41810    0.13599    1.000
    Mo21     Mo       0.91840    0.33499    0.06701    1.000
    S22      S        0.83515    0.41842    0.99806    1.000
    S23      S        0.83495    0.41822    0.13600    1.000
    Mo24     Mo       0.16843    0.58498    0.06712    1.000
    S25      S        0.08510    0.66839    0.99821    1.000
    S26      S        0.08505    0.66822    0.13609    1.000
    Mo27     Mo       0.41852    0.58498    0.06701    1.000
    S28      S        0.33506    0.66838    0.99817    1.000
    S29      S        0.33519    0.66819    0.13614    1.000
    Mo30     Mo       0.66831    0.58493    0.06715    1.000
    S31      S        0.58508    0.66814    0.99794    1.000
    S32      S        0.58530    0.66886    0.13582    1.000
    Mo33     Mo       0.91840    0.58496    0.06713    1.000
    S34      S        0.83508    0.66829    0.99821    1.000
    S35      S        0.83500    0.66829    0.13612    1.000
    Mo36     Mo       0.16844    0.83498    0.06719    1.000
    S37      S        0.08515    0.91827    0.99822    1.000
    S38      S        0.08502    0.91833    0.13609    1.000
    Mo39     Mo       0.41845    0.83499    0.06715    1.000
    S40      S        0.33508    0.91835    0.99824    1.000
    S41      S        0.33513    0.91830    0.13614    1.000
    Mo42     Mo       0.66843    0.83499    0.06676    1.000
    S43      S        0.58488    0.91832    0.99802    1.000
    S44      S        0.58526    0.91826    0.13595    1.000
    Mo45     Mo       0.91840    0.83499    0.06710    1.000
    S46      S        0.83522    0.91829    0.99798    1.000
    S47      S        0.83487    0.91822    0.13594    1.000
    C48      C        0.33213    0.41719    0.29252    1.000
    H49      H        0.31776    0.39909    0.33884    1.000
    H50      H        0.29071    0.33561    0.26764    1.000
    H51      H        0.29495    0.47159    0.27917    1.000
    S52      S        0.49179    0.50464    0.27618    1.000
    H53      H        0.51815    0.41988    0.28922    1.000
