# CIF file generated by openbabel 3.1.0, see https://openbabel.org
data_I
_chemical_name_common ''
_cell_length_a 13.105
_cell_length_b 13.105
_cell_length_c 23.0122
_cell_angle_alpha 90
_cell_angle_beta 90
_cell_angle_gamma 120
loop_
    _atom_site_label
    _atom_site_type_symbol
    _atom_site_fract_x
    _atom_site_fract_y
    _atom_site_fract_z
    _atom_site_occupancy
    Mo0      Mo       0.16719    0.08336    0.06746    1.000
    S1       S        0.08372    0.16654    0.99847    1.000
    S2       S        0.08388    0.16679    0.13642    1.000
    Mo3      Mo       0.41713    0.08319    0.06742    1.000
    S4       S        0.33383    0.16657    0.99850    1.000
    S5       S        0.33384    0.16654    0.13643    1.000
    Mo6      Mo       0.66711    0.08313    0.06742    1.000
    S7       S        0.58387    0.16663    0.99851    1.000
    S8       S        0.58368    0.16629    0.13644    1.000
    Mo9      Mo       0.91718    0.08320    0.06749    1.000
    S10      S        0.83381    0.16646    0.99849    1.000
    S11      S        0.83375    0.16648    0.13641    1.000
    Mo12     Mo       0.16723    0.33328    0.06736    1.000
    S13      S        0.08364    0.41629    0.99830    1.000
    S14      S        0.08408    0.41688    0.13624    1.000
    Mo15     Mo       0.41725    0.33323    0.06748    1.000
    S16      S        0.33385    0.41624    0.99836    1.000
    S17      S        0.33393    0.41679    0.13636    1.000
    Mo18     Mo       0.66714    0.33312    0.06756    1.000
    S19      S        0.58391    0.41641    0.99854    1.000
    S20      S        0.58389    0.41662    0.13651    1.000
    Mo21     Mo       0.91715    0.33314    0.06742    1.000
    S22      S        0.83366    0.41634    0.99852    1.000
    S23      S        0.83396    0.41652    0.13645    1.000
    Mo24     Mo       0.16710    0.58322    0.06702    1.000
    S25      S        0.08363    0.66659    0.99825    1.000
    S26      S        0.08407    0.66651    0.13620    1.000
    Mo27     Mo       0.41716    0.58311    0.06708    1.000
    S28      S        0.33393    0.66660    0.99804    1.000
    S29      S        0.33370    0.66652    0.13575    1.000
    Mo30     Mo       0.66732    0.58313    0.06739    1.000
    S31      S        0.58415    0.66660    0.99832    1.000
    S32      S        0.58383    0.66655    0.13604    1.000
    Mo33     Mo       0.91720    0.58316    0.06739    1.000
    S34      S        0.83394    0.66658    0.99847    1.000
    S35      S        0.83390    0.66645    0.13643    1.000
    Mo36     Mo       0.16718    0.83322    0.06730    1.000
    S37      S        0.08385    0.91675    0.99848    1.000
    S38      S        0.08402    0.91663    0.13639    1.000
    Mo39     Mo       0.41724    0.83328    0.06710    1.000
    S40      S        0.33377    0.91673    0.99831    1.000
    S41      S        0.33384    0.91632    0.13625    1.000
    Mo42     Mo       0.66733    0.83335    0.06733    1.000
    S43      S        0.58407    0.91667    0.99830    1.000
    S44      S        0.58363    0.91628    0.13631    1.000
    Mo45     Mo       0.91722    0.83320    0.06749    1.000
    S46      S        0.83409    0.91661    0.99850    1.000
    S47      S        0.83381    0.91648    0.13646    1.000
    C48      C        0.38372    0.65559    0.29249    1.000
    H49      H        0.35385    0.67233    0.33369    1.000
    H50      H        0.31215    0.57699    0.27251    1.000
    H51      H        0.41151    0.73139    0.26406    1.000
    S52      S        0.50931    0.63365    0.31040    1.000
    H53      H        0.53586    0.62001    0.25523    1.000
