# CIF file generated by openbabel 3.1.0, see https://openbabel.org
data_I
_chemical_name_common ''
_cell_length_a 13.105
_cell_length_b 13.105
_cell_length_c 23.0122
_cell_angle_alpha 90
_cell_angle_beta 90
_cell_angle_gamma 120
loop_
    _atom_site_label
    _atom_site_type_symbol
    _atom_site_fract_x
    _atom_site_fract_y
    _atom_site_fract_z
    _atom_site_occupancy
    Mo0      Mo       0.16734    0.08519    0.06802    1.000
    S1       S        0.08395    0.16844    0.99905    1.000
    S2       S        0.08411    0.16861    0.13701    1.000
    Mo3      Mo       0.41721    0.08512    0.06802    1.000
    S4       S        0.33391    0.16840    0.99901    1.000
    S5       S        0.33398    0.16857    0.13698    1.000
    Mo6      Mo       0.66729    0.08513    0.06807    1.000
    S7       S        0.58393    0.16842    0.99911    1.000
    S8       S        0.58384    0.16839    0.13701    1.000
    Mo9      Mo       0.91735    0.08514    0.06806    1.000
    S10      S        0.83398    0.16844    0.99914    1.000
    S11      S        0.83397    0.16839    0.13705    1.000
    Mo12     Mo       0.16723    0.33517    0.06793    1.000
    S13      S        0.08381    0.41839    0.99902    1.000
    S14      S        0.08408    0.41857    0.13703    1.000
    Mo15     Mo       0.41737    0.33509    0.06789    1.000
    S16      S        0.33393    0.41844    0.99892    1.000
    S17      S        0.33411    0.41853    0.13662    1.000
    Mo18     Mo       0.66725    0.33507    0.06806    1.000
    S19      S        0.58405    0.41842    0.99900    1.000
    S20      S        0.58392    0.41852    0.13697    1.000
    Mo21     Mo       0.91730    0.33507    0.06809    1.000
    S22      S        0.83387    0.41821    0.99910    1.000
    S23      S        0.83389    0.41834    0.13703    1.000
    Mo24     Mo       0.16713    0.58508    0.06792    1.000
    S25      S        0.08375    0.66844    0.99903    1.000
    S26      S        0.08387    0.66836    0.13696    1.000
    Mo27     Mo       0.41735    0.58528    0.06783    1.000
    S28      S        0.33382    0.66851    0.99894    1.000
    S29      S        0.33380    0.66848    0.13679    1.000
    Mo30     Mo       0.66733    0.58510    0.06792    1.000
    S31      S        0.58411    0.66856    0.99894    1.000
    S32      S        0.58406    0.66853    0.13680    1.000
    Mo33     Mo       0.91719    0.58498    0.06803    1.000
    S34      S        0.83409    0.66845    0.99904    1.000
    S35      S        0.83387    0.66835    0.13696    1.000
    Mo36     Mo       0.16723    0.83509    0.06802    1.000
    S37      S        0.08392    0.91843    0.99909    1.000
    S38      S        0.08397    0.91849    0.13698    1.000
    Mo39     Mo       0.41725    0.83518    0.06795    1.000
    S40      S        0.33390    0.91849    0.99903    1.000
    S41      S        0.33389    0.91841    0.13696    1.000
    Mo42     Mo       0.66737    0.83521    0.06795    1.000
    S43      S        0.58400    0.91857    0.99905    1.000
    S44      S        0.58389    0.91838    0.13696    1.000
    Mo45     Mo       0.91728    0.83511    0.06803    1.000
    S46      S        0.83406    0.91856    0.99906    1.000
    S47      S        0.83395    0.91842    0.13698    1.000
    C48      C        0.40634    0.57455    0.28570    1.000
    H49      H        0.45031    0.62315    0.32493    1.000
    H50      H        0.36372    0.61747    0.26426    1.000
    H51      H        0.47112    0.57230    0.25690    1.000
    S52      S        0.29641    0.42400    0.30992    1.000
    H53      H        0.25937    0.37771    0.25638    1.000
