# CIF file generated by openbabel 3.1.0, see https://openbabel.org
data_I
_chemical_name_common ''
_cell_length_a 13.105
_cell_length_b 13.105
_cell_length_c 23.0122
_cell_angle_alpha 90
_cell_angle_beta 90
_cell_angle_gamma 120
loop_
    _atom_site_label
    _atom_site_type_symbol
    _atom_site_fract_x
    _atom_site_fract_y
    _atom_site_fract_z
    _atom_site_occupancy
    Mo0      Mo       0.16446    0.08014    0.06759    1.000
    S1       S        0.08116    0.16342    0.99858    1.000
    S2       S        0.08109    0.16354    0.13650    1.000
    Mo3      Mo       0.41444    0.08013    0.06753    1.000
    S4       S        0.33105    0.16344    0.99861    1.000
    S5       S        0.33119    0.16353    0.13654    1.000
    Mo6      Mo       0.66446    0.08021    0.06740    1.000
    S7       S        0.58104    0.16352    0.99852    1.000
    S8       S        0.58119    0.16348    0.13643    1.000
    Mo9      Mo       0.91443    0.08014    0.06750    1.000
    S10      S        0.83118    0.16352    0.99851    1.000
    S11      S        0.83103    0.16347    0.13641    1.000
    Mo12     Mo       0.16447    0.33013    0.06743    1.000
    S13      S        0.08113    0.41351    0.99853    1.000
    S14      S        0.08120    0.41355    0.13648    1.000
    Mo15     Mo       0.41440    0.33014    0.06749    1.000
    S16      S        0.33116    0.41351    0.99850    1.000
    S17      S        0.33087    0.41314    0.13645    1.000
    Mo18     Mo       0.66442    0.33018    0.06750    1.000
    S19      S        0.58106    0.41347    0.99855    1.000
    S20      S        0.58110    0.41360    0.13651    1.000
    Mo21     Mo       0.91445    0.33017    0.06749    1.000
    S22      S        0.83108    0.41348    0.99854    1.000
    S23      S        0.83110    0.41352    0.13644    1.000
    Mo24     Mo       0.16448    0.58016    0.06747    1.000
    S25      S        0.08116    0.66349    0.99852    1.000
    S26      S        0.08115    0.66349    0.13643    1.000
    Mo27     Mo       0.41440    0.57997    0.06769    1.000
    S28      S        0.33115    0.66334    0.99855    1.000
    S29      S        0.33105    0.66346    0.13649    1.000
    Mo30     Mo       0.66444    0.58016    0.06745    1.000
    S31      S        0.58095    0.66335    0.99852    1.000
    S32      S        0.58133    0.66361    0.13643    1.000
    Mo33     Mo       0.91445    0.58016    0.06747    1.000
    S34      S        0.83110    0.66349    0.99851    1.000
    S35      S        0.83108    0.66350    0.13641    1.000
    Mo36     Mo       0.16443    0.83013    0.06749    1.000
    S37      S        0.08117    0.91357    0.99854    1.000
    S38      S        0.08106    0.91339    0.13648    1.000
    Mo39     Mo       0.41444    0.83009    0.06738    1.000
    S40      S        0.33107    0.91349    0.99854    1.000
    S41      S        0.33114    0.91333    0.13644    1.000
    Mo42     Mo       0.66442    0.83012    0.06735    1.000
    S43      S        0.58111    0.91351    0.99843    1.000
    S44      S        0.58116    0.91354    0.13634    1.000
    Mo45     Mo       0.91446    0.83014    0.06747    1.000
    S46      S        0.83117    0.91350    0.99851    1.000
    S47      S        0.83096    0.91336    0.13642    1.000
    C48      C        0.49211    0.73345    0.28735    1.000
    H49      H        0.48346    0.75470    0.33211    1.000
    H50      H        0.45308    0.76914    0.25767    1.000
    H51      H        0.58505    0.77054    0.27680    1.000
    S52      S        0.42426    0.57197    0.27776    1.000
    H53      H        0.31254    0.54399    0.29046    1.000
