# CIF file generated by openbabel 3.1.0, see https://openbabel.org
data_I
_chemical_name_common ''
_cell_length_a 13.105
_cell_length_b 13.105
_cell_length_c 23.0122
_cell_angle_alpha 90
_cell_angle_beta 90
_cell_angle_gamma 120
loop_
    _atom_site_label
    _atom_site_type_symbol
    _atom_site_fract_x
    _atom_site_fract_y
    _atom_site_fract_z
    _atom_site_occupancy
    Mo0      Mo       0.16726    0.08401    0.06754    1.000
    S1       S        0.08400    0.16733    0.99853    1.000
    S2       S        0.08384    0.16732    0.13645    1.000
    Mo3      Mo       0.41724    0.08409    0.06738    1.000
    S4       S        0.33377    0.16739    0.99851    1.000
    S5       S        0.33409    0.16751    0.13648    1.000
    Mo6      Mo       0.66720    0.08393    0.06729    1.000
    S7       S        0.58369    0.16697    0.99822    1.000
    S8       S        0.58408    0.16762    0.13618    1.000
    Mo9      Mo       0.91725    0.08402    0.06741    1.000
    S10      S        0.83399    0.16737    0.99841    1.000
    S11      S        0.83380    0.16731    0.13629    1.000
    Mo12     Mo       0.16730    0.33403    0.06746    1.000
    S13      S        0.08404    0.41739    0.99852    1.000
    S14      S        0.08381    0.41723    0.13646    1.000
    Mo15     Mo       0.41732    0.33408    0.06744    1.000
    S16      S        0.33401    0.41749    0.99855    1.000
    S17      S        0.33387    0.41723    0.13653    1.000
    Mo18     Mo       0.66731    0.33391    0.06689    1.000
    S19      S        0.58376    0.41742    0.99816    1.000
    S20      S        0.58416    0.41669    0.13598    1.000
    Mo21     Mo       0.91728    0.33403    0.06738    1.000
    S22      S        0.83431    0.41761    0.99828    1.000
    S23      S        0.83355    0.41713    0.13626    1.000
    Mo24     Mo       0.16721    0.58394    0.06756    1.000
    S25      S        0.08400    0.66739    0.99859    1.000
    S26      S        0.08375    0.66721    0.13649    1.000
    Mo27     Mo       0.41733    0.58398    0.06761    1.000
    S28      S        0.33386    0.66723    0.99863    1.000
    S29      S        0.33394    0.66734    0.13653    1.000
    Mo30     Mo       0.66702    0.58381    0.06748    1.000
    S31      S        0.58375    0.66712    0.99846    1.000
    S32      S        0.58413    0.66761    0.13646    1.000
    Mo33     Mo       0.91720    0.58399    0.06744    1.000
    S34      S        0.83377    0.66734    0.99854    1.000
    S35      S        0.83380    0.66735    0.13641    1.000
    Mo36     Mo       0.16722    0.83398    0.06757    1.000
    S37      S        0.08394    0.91731    0.99859    1.000
    S38      S        0.08388    0.91733    0.13650    1.000
    Mo39     Mo       0.41723    0.83399    0.06750    1.000
    S40      S        0.33376    0.91722    0.99855    1.000
    S41      S        0.33406    0.91755    0.13644    1.000
    Mo42     Mo       0.66720    0.83395    0.06729    1.000
    S43      S        0.58373    0.91715    0.99840    1.000
    S44      S        0.58399    0.91737    0.13635    1.000
    Mo45     Mo       0.91726    0.83407    0.06748    1.000
    S46      S        0.83401    0.91735    0.99846    1.000
    S47      S        0.83378    0.91733    0.13638    1.000
    C48      C        0.68893    0.50354    0.28752    1.000
    H49      H        0.72033    0.52331    0.33212    1.000
    H50      H        0.75269    0.56931    0.25789    1.000
    H51      H        0.67512    0.41711    0.27552    1.000
    S52      S        0.54327    0.49385    0.28053    1.000
    H53      H        0.58042    0.60842    0.29164    1.000
