# CIF file generated by openbabel 3.1.0, see https://openbabel.org
data_I
_chemical_name_common ''
_cell_length_a 13.105
_cell_length_b 13.105
_cell_length_c 23.0122
_cell_angle_alpha 90
_cell_angle_beta 90
_cell_angle_gamma 120
loop_
    _atom_site_label
    _atom_site_type_symbol
    _atom_site_fract_x
    _atom_site_fract_y
    _atom_site_fract_z
    _atom_site_occupancy
    Mo0      Mo       0.16800    0.08280    0.06701    1.000
    S1       S        0.08438    0.16588    0.99802    1.000
    S2       S        0.08478    0.16632    0.13599    1.000
    Mo3      Mo       0.41785    0.08274    0.06700    1.000
    S4       S        0.33459    0.16609    0.99803    1.000
    S5       S        0.33460    0.16616    0.13601    1.000
    Mo6      Mo       0.66792    0.08273    0.06715    1.000
    S7       S        0.58458    0.16596    0.99809    1.000
    S8       S        0.58445    0.16616    0.13607    1.000
    Mo9      Mo       0.91787    0.08265    0.06710    1.000
    S10      S        0.83450    0.16597    0.99815    1.000
    S11      S        0.83463    0.16605    0.13611    1.000
    Mo12     Mo       0.16785    0.33277    0.06678    1.000
    S13      S        0.08439    0.41613    0.99800    1.000
    S14      S        0.08467    0.41607    0.13596    1.000
    Mo15     Mo       0.41790    0.33271    0.06703    1.000
    S16      S        0.33460    0.41598    0.99784    1.000
    S17      S        0.33447    0.41623    0.13554    1.000
    Mo18     Mo       0.66784    0.33273    0.06697    1.000
    S19      S        0.58446    0.41595    0.99797    1.000
    S20      S        0.58450    0.41603    0.13593    1.000
    Mo21     Mo       0.91782    0.33268    0.06707    1.000
    S22      S        0.83460    0.41610    0.99809    1.000
    S23      S        0.83439    0.41594    0.13604    1.000
    Mo24     Mo       0.16793    0.58276    0.06702    1.000
    S25      S        0.08455    0.66606    0.99813    1.000
    S26      S        0.08460    0.66595    0.13608    1.000
    Mo27     Mo       0.41786    0.58278    0.06675    1.000
    S28      S        0.33456    0.66630    0.99799    1.000
    S29      S        0.33464    0.66598    0.13596    1.000
    Mo30     Mo       0.66779    0.58257    0.06695    1.000
    S31      S        0.58472    0.66625    0.99799    1.000
    S32      S        0.58430    0.66581    0.13595    1.000
    Mo33     Mo       0.91788    0.58265    0.06711    1.000
    S34      S        0.83461    0.66599    0.99811    1.000
    S35      S        0.83434    0.66580    0.13606    1.000
    Mo36     Mo       0.16794    0.83269    0.06714    1.000
    S37      S        0.08462    0.91600    0.99815    1.000
    S38      S        0.08472    0.91617    0.13609    1.000
    Mo39     Mo       0.41800    0.83282    0.06708    1.000
    S40      S        0.33450    0.91600    0.99812    1.000
    S41      S        0.33466    0.91616    0.13607    1.000
    Mo42     Mo       0.66799    0.83275    0.06708    1.000
    S43      S        0.58470    0.91616    0.99815    1.000
    S44      S        0.58465    0.91603    0.13610    1.000
    Mo45     Mo       0.91794    0.83262    0.06714    1.000
    S46      S        0.83469    0.91595    0.99816    1.000
    S47      S        0.83461    0.91598    0.13609    1.000
    C48      C        0.32609    0.42463    0.29226    1.000
    H49      H        0.30575    0.42187    0.33826    1.000
    H50      H        0.24576    0.38590    0.26639    1.000
    H51      H        0.38259    0.51587    0.27887    1.000
    S52      S        0.41155    0.34926    0.27822    1.000
    H53      H        0.32422    0.23861    0.29008    1.000
