# CIF file generated by openbabel 3.1.0, see https://openbabel.org
data_I
_chemical_name_common ''
_cell_length_a 13.105
_cell_length_b 13.105
_cell_length_c 23.0122
_cell_angle_alpha 90
_cell_angle_beta 90
_cell_angle_gamma 120
loop_
    _atom_site_label
    _atom_site_type_symbol
    _atom_site_fract_x
    _atom_site_fract_y
    _atom_site_fract_z
    _atom_site_occupancy
    Mo0      Mo       0.16678    0.08347    0.06743    1.000
    S1       S        0.08348    0.16679    0.99843    1.000
    S2       S        0.08334    0.16672    0.13637    1.000
    Mo3      Mo       0.41682    0.08350    0.06739    1.000
    S4       S        0.33344    0.16679    0.99846    1.000
    S5       S        0.33356    0.16689    0.13638    1.000
    Mo6      Mo       0.66680    0.08350    0.06731    1.000
    S7       S        0.58343    0.16683    0.99836    1.000
    S8       S        0.58352    0.16685    0.13632    1.000
    Mo9      Mo       0.91676    0.08345    0.06733    1.000
    S10      S        0.83352    0.16693    0.99841    1.000
    S11      S        0.83340    0.16674    0.13630    1.000
    Mo12     Mo       0.16667    0.33339    0.06739    1.000
    S13      S        0.08343    0.41684    0.99848    1.000
    S14      S        0.08344    0.41678    0.13640    1.000
    Mo15     Mo       0.41692    0.33347    0.06734    1.000
    S16      S        0.33335    0.41665    0.99842    1.000
    S17      S        0.33348    0.41681    0.13624    1.000
    Mo18     Mo       0.66674    0.33349    0.06730    1.000
    S19      S        0.58344    0.41681    0.99838    1.000
    S20      S        0.58347    0.41673    0.13638    1.000
    Mo21     Mo       0.91677    0.33350    0.06742    1.000
    S22      S        0.83352    0.41693    0.99846    1.000
    S23      S        0.83331    0.41680    0.13638    1.000
    Mo24     Mo       0.16674    0.58348    0.06744    1.000
    S25      S        0.08338    0.66677    0.99849    1.000
    S26      S        0.08339    0.66681    0.13642    1.000
    Mo27     Mo       0.41680    0.58359    0.06721    1.000
    S28      S        0.33329    0.66685    0.99838    1.000
    S29      S        0.33361    0.66692    0.13635    1.000
    Mo30     Mo       0.66667    0.58342    0.06746    1.000
    S31      S        0.58340    0.66660    0.99819    1.000
    S32      S        0.58354    0.66738    0.13590    1.000
    Mo33     Mo       0.91671    0.58352    0.06745    1.000
    S34      S        0.83341    0.66677    0.99847    1.000
    S35      S        0.83327    0.66681    0.13648    1.000
    Mo36     Mo       0.16677    0.83346    0.06743    1.000
    S37      S        0.08350    0.91681    0.99847    1.000
    S38      S        0.08336    0.91675    0.13637    1.000
    Mo39     Mo       0.41679    0.83354    0.06732    1.000
    S40      S        0.33337    0.91687    0.99843    1.000
    S41      S        0.33353    0.91684    0.13633    1.000
    Mo42     Mo       0.66678    0.83352    0.06698    1.000
    S43      S        0.58334    0.91692    0.99822    1.000
    S44      S        0.58355    0.91668    0.13620    1.000
    Mo45     Mo       0.91672    0.83342    0.06738    1.000
    S46      S        0.83369    0.91687    0.99826    1.000
    S47      S        0.83314    0.91664    0.13624    1.000
    C48      C        0.47285    0.57787    0.28718    1.000
    H49      H        0.43984    0.55889    0.33154    1.000
    H50      H        0.40887    0.51322    0.25720    1.000
    H51      H        0.48986    0.66533    0.27493    1.000
    S52      S        0.61649    0.58284    0.28157    1.000
    H53      H        0.57671    0.46922    0.29617    1.000
