# CIF file generated by openbabel 3.1.0, see https://openbabel.org
data_I
_chemical_name_common ''
_cell_length_a 13.105
_cell_length_b 13.105
_cell_length_c 23.0122
_cell_angle_alpha 90
_cell_angle_beta 90
_cell_angle_gamma 120
loop_
    _atom_site_label
    _atom_site_type_symbol
    _atom_site_fract_x
    _atom_site_fract_y
    _atom_site_fract_z
    _atom_site_occupancy
    Mo0      Mo       0.16760    0.08390    0.06746    1.000
    S1       S        0.08426    0.16723    0.99850    1.000
    S2       S        0.08418    0.16714    0.13642    1.000
    Mo3      Mo       0.41768    0.08404    0.06766    1.000
    S4       S        0.33425    0.16715    0.99856    1.000
    S5       S        0.33422    0.16739    0.13656    1.000
    Mo6      Mo       0.66749    0.08388    0.06734    1.000
    S7       S        0.58411    0.16725    0.99851    1.000
    S8       S        0.58447    0.16713    0.13648    1.000
    Mo9      Mo       0.91755    0.08391    0.06743    1.000
    S10      S        0.83423    0.16727    0.99846    1.000
    S11      S        0.83408    0.16711    0.13641    1.000
    Mo12     Mo       0.16753    0.33383    0.06748    1.000
    S13      S        0.08416    0.41719    0.99856    1.000
    S14      S        0.08415    0.41710    0.13645    1.000
    Mo15     Mo       0.41760    0.33393    0.06743    1.000
    S16      S        0.33416    0.41722    0.99849    1.000
    S17      S        0.33428    0.41724    0.13646    1.000
    Mo18     Mo       0.66733    0.33383    0.06755    1.000
    S19      S        0.58410    0.41700    0.99826    1.000
    S20      S        0.58420    0.41785    0.13599    1.000
    Mo21     Mo       0.91747    0.33381    0.06749    1.000
    S22      S        0.83408    0.41716    0.99859    1.000
    S23      S        0.83409    0.41712    0.13653    1.000
    Mo24     Mo       0.16749    0.58384    0.06752    1.000
    S25      S        0.08418    0.66718    0.99857    1.000
    S26      S        0.08411    0.66714    0.13648    1.000
    Mo27     Mo       0.41748    0.58391    0.06743    1.000
    S28      S        0.33406    0.66725    0.99853    1.000
    S29      S        0.33418    0.66717    0.13645    1.000
    Mo30     Mo       0.66752    0.58398    0.06698    1.000
    S31      S        0.58400    0.66738    0.99831    1.000
    S32      S        0.58430    0.66710    0.13628    1.000
    Mo33     Mo       0.91748    0.58388    0.06749    1.000
    S34      S        0.83453    0.66740    0.99834    1.000
    S35      S        0.83387    0.66714    0.13631    1.000
    Mo36     Mo       0.16757    0.83389    0.06754    1.000
    S37      S        0.08436    0.91721    0.99852    1.000
    S38      S        0.08419    0.91723    0.13645    1.000
    Mo39     Mo       0.41750    0.83388    0.06753    1.000
    S40      S        0.33431    0.91741    0.99865    1.000
    S41      S        0.33424    0.91725    0.13656    1.000
    Mo42     Mo       0.66755    0.83393    0.06740    1.000
    S43      S        0.58404    0.91714    0.99849    1.000
    S44      S        0.58426    0.91726    0.13642    1.000
    Mo45     Mo       0.91760    0.83395    0.06742    1.000
    S46      S        0.83426    0.91729    0.99847    1.000
    S47      S        0.83421    0.91724    0.13637    1.000
    C48      C        0.69208    0.44180    0.28705    1.000
    H49      H        0.70357    0.47664    0.33094    1.000
    H50      H        0.69073    0.50354    0.25579    1.000
    H51      H        0.76444    0.42663    0.27642    1.000
    S52      S        0.55574    0.29616    0.28162    1.000
    H53      H        0.47895    0.33440    0.29214    1.000
