# CIF file generated by openbabel 3.1.0, see https://openbabel.org
data_I
_chemical_name_common ''
_cell_length_a 13.105
_cell_length_b 13.105
_cell_length_c 23.0122
_cell_angle_alpha 90
_cell_angle_beta 90
_cell_angle_gamma 120
loop_
    _atom_site_label
    _atom_site_type_symbol
    _atom_site_fract_x
    _atom_site_fract_y
    _atom_site_fract_z
    _atom_site_occupancy
    Mo0      Mo       0.16457    0.08365    0.06801    1.000
    S1       S        0.08102    0.16673    0.99902    1.000
    S2       S        0.08126    0.16701    0.13697    1.000
    Mo3      Mo       0.41453    0.08365    0.06798    1.000
    S4       S        0.33106    0.16676    0.99891    1.000
    S5       S        0.33138    0.16728    0.13693    1.000
    Mo6      Mo       0.66450    0.08360    0.06799    1.000
    S7       S        0.58108    0.16664    0.99889    1.000
    S8       S        0.58124    0.16711    0.13690    1.000
    Mo9      Mo       0.91449    0.08358    0.06804    1.000
    S10      S        0.83122    0.16690    0.99904    1.000
    S11      S        0.83120    0.16705    0.13696    1.000
    Mo12     Mo       0.16431    0.33353    0.06784    1.000
    S13      S        0.08111    0.41701    0.99896    1.000
    S14      S        0.08115    0.41691    0.13692    1.000
    Mo15     Mo       0.41436    0.33354    0.06765    1.000
    S16      S        0.33093    0.41693    0.99879    1.000
    S17      S        0.33103    0.41691    0.13653    1.000
    Mo18     Mo       0.66456    0.33347    0.06768    1.000
    S19      S        0.58117    0.41689    0.99868    1.000
    S20      S        0.58122    0.41696    0.13632    1.000
    Mo21     Mo       0.91451    0.33365    0.06794    1.000
    S22      S        0.83136    0.41698    0.99885    1.000
    S23      S        0.83101    0.41690    0.13683    1.000
    Mo24     Mo       0.16456    0.58359    0.06799    1.000
    S25      S        0.08129    0.66696    0.99903    1.000
    S26      S        0.08102    0.66675    0.13695    1.000
    Mo27     Mo       0.41455    0.58367    0.06781    1.000
    S28      S        0.33123    0.66714    0.99901    1.000
    S29      S        0.33129    0.66685    0.13696    1.000
    Mo30     Mo       0.66459    0.58376    0.06768    1.000
    S31      S        0.58124    0.66722    0.99888    1.000
    S32      S        0.58116    0.66670    0.13688    1.000
    Mo33     Mo       0.91445    0.58359    0.06788    1.000
    S34      S        0.83138    0.66719    0.99886    1.000
    S35      S        0.83098    0.66679    0.13685    1.000
    Mo36     Mo       0.16445    0.83357    0.06807    1.000
    S37      S        0.08124    0.91698    0.99908    1.000
    S38      S        0.08116    0.91698    0.13702    1.000
    Mo39     Mo       0.41451    0.83366    0.06807    1.000
    S40      S        0.33106    0.91686    0.99910    1.000
    S41      S        0.33115    0.91703    0.13702    1.000
    Mo42     Mo       0.66448    0.83363    0.06803    1.000
    S43      S        0.58112    0.91691    0.99907    1.000
    S44      S        0.58121    0.91700    0.13702    1.000
    Mo45     Mo       0.91450    0.83364    0.06801    1.000
    S46      S        0.83115    0.91698    0.99908    1.000
    S47      S        0.83113    0.91693    0.13702    1.000
    C48      C        0.40573    0.40836    0.29190    1.000
    H49      H        0.34471    0.33198    0.26635    1.000
    H50      H        0.42932    0.48939    0.26842    1.000
    H51      H        0.36422    0.40822    0.33291    1.000
    S52      S        0.53874    0.40033    0.31149    1.000
    H53      H        0.57564    0.40115    0.25654    1.000
