# CIF file generated by openbabel 3.1.0, see https://openbabel.org
data_I
_chemical_name_common ''
_cell_length_a 13.105
_cell_length_b 13.105
_cell_length_c 23.0122
_cell_angle_alpha 90
_cell_angle_beta 90
_cell_angle_gamma 120
loop_
    _atom_site_label
    _atom_site_type_symbol
    _atom_site_fract_x
    _atom_site_fract_y
    _atom_site_fract_z
    _atom_site_occupancy
    Mo0      Mo       0.16604    0.08389    0.06860    1.000
    S1       S        0.08263    0.16723    0.99968    1.000
    S2       S        0.08276    0.16723    0.13764    1.000
    Mo3      Mo       0.41599    0.08379    0.06858    1.000
    S4       S        0.33255    0.16696    0.99954    1.000
    S5       S        0.33272    0.16725    0.13751    1.000
    Mo6      Mo       0.66607    0.08391    0.06866    1.000
    S7       S        0.58263    0.16705    0.99961    1.000
    S8       S        0.58262    0.16723    0.13757    1.000
    Mo9      Mo       0.91607    0.08392    0.06869    1.000
    S10      S        0.83275    0.16726    0.99971    1.000
    S11      S        0.83273    0.16730    0.13765    1.000
    Mo12     Mo       0.16601    0.33386    0.06865    1.000
    S13      S        0.08275    0.41729    0.99973    1.000
    S14      S        0.08267    0.41715    0.13765    1.000
    Mo15     Mo       0.41585    0.33371    0.06839    1.000
    S16      S        0.33257    0.41722    0.99957    1.000
    S17      S        0.33275    0.41706    0.13756    1.000
    Mo18     Mo       0.66608    0.33376    0.06847    1.000
    S19      S        0.58280    0.41726    0.99949    1.000
    S20      S        0.58243    0.41685    0.13714    1.000
    Mo21     Mo       0.91606    0.33391    0.06868    1.000
    S22      S        0.83291    0.41727    0.99966    1.000
    S23      S        0.83252    0.41715    0.13764    1.000
    Mo24     Mo       0.16608    0.58390    0.06871    1.000
    S25      S        0.08270    0.66720    0.99973    1.000
    S26      S        0.08278    0.66727    0.13769    1.000
    Mo27     Mo       0.41605    0.58383    0.06863    1.000
    S28      S        0.33273    0.66717    0.99971    1.000
    S29      S        0.33284    0.66721    0.13765    1.000
    Mo30     Mo       0.66603    0.58395    0.06852    1.000
    S31      S        0.58269    0.66729    0.99965    1.000
    S32      S        0.58278    0.66725    0.13759    1.000
    Mo33     Mo       0.91607    0.58388    0.06869    1.000
    S34      S        0.83281    0.66726    0.99967    1.000
    S35      S        0.83271    0.66736    0.13753    1.000
    Mo36     Mo       0.16614    0.83387    0.06866    1.000
    S37      S        0.08285    0.91722    0.99967    1.000
    S38      S        0.08282    0.91730    0.13759    1.000
    Mo39     Mo       0.41619    0.83386    0.06865    1.000
    S40      S        0.33276    0.91708    0.99964    1.000
    S41      S        0.33286    0.91717    0.13760    1.000
    Mo42     Mo       0.66619    0.83395    0.06865    1.000
    S43      S        0.58287    0.91725    0.99970    1.000
    S44      S        0.58287    0.91727    0.13763    1.000
    Mo45     Mo       0.91617    0.83400    0.06861    1.000
    S46      S        0.83285    0.91732    0.99967    1.000
    S47      S        0.83284    0.91723    0.13766    1.000
    C48      C        0.70087    0.50027    0.28709    1.000
    H49      H        0.76151    0.58082    0.26412    1.000
    H50      H        0.68493    0.42329    0.26190    1.000
    H51      H        0.73858    0.49855    0.32900    1.000
    S52      S        0.56056    0.49645    0.30374    1.000
    H53      H        0.52739    0.49714    0.24819    1.000
