# CIF file generated by openbabel 3.1.0, see https://openbabel.org
data_I
_chemical_name_common ''
_cell_length_a 13.105
_cell_length_b 13.105
_cell_length_c 23.0122
_cell_angle_alpha 90
_cell_angle_beta 90
_cell_angle_gamma 120
loop_
    _atom_site_label
    _atom_site_type_symbol
    _atom_site_fract_x
    _atom_site_fract_y
    _atom_site_fract_z
    _atom_site_occupancy
    Mo0      Mo       0.16530    0.08281    0.06861    1.000
    S1       S        0.08196    0.16613    0.99968    1.000
    S2       S        0.08202    0.16614    0.13759    1.000
    Mo3      Mo       0.41528    0.08281    0.06862    1.000
    S4       S        0.33181    0.16584    0.99953    1.000
    S5       S        0.33210    0.16634    0.13751    1.000
    Mo6      Mo       0.66520    0.08273    0.06866    1.000
    S7       S        0.58184    0.16581    0.99958    1.000
    S8       S        0.58200    0.16635    0.13756    1.000
    Mo9      Mo       0.91526    0.08277    0.06864    1.000
    S10      S        0.83185    0.16602    0.99969    1.000
    S11      S        0.83190    0.16610    0.13759    1.000
    Mo12     Mo       0.16529    0.33276    0.06863    1.000
    S13      S        0.08193    0.41604    0.99970    1.000
    S14      S        0.08187    0.41599    0.13760    1.000
    Mo15     Mo       0.41510    0.33267    0.06825    1.000
    S16      S        0.33181    0.41624    0.99955    1.000
    S17      S        0.33210    0.41601    0.13751    1.000
    Mo18     Mo       0.66535    0.33266    0.06830    1.000
    S19      S        0.58202    0.41614    0.99929    1.000
    S20      S        0.58180    0.41601    0.13678    1.000
    Mo21     Mo       0.91525    0.33271    0.06861    1.000
    S22      S        0.83218    0.41613    0.99952    1.000
    S23      S        0.83179    0.41608    0.13747    1.000
    Mo24     Mo       0.16522    0.58270    0.06865    1.000
    S25      S        0.08203    0.66615    0.99965    1.000
    S26      S        0.08183    0.66606    0.13756    1.000
    Mo27     Mo       0.41529    0.58275    0.06863    1.000
    S28      S        0.33190    0.66609    0.99973    1.000
    S29      S        0.33188    0.66598    0.13762    1.000
    Mo30     Mo       0.66535    0.58294    0.06831    1.000
    S31      S        0.58184    0.66629    0.99959    1.000
    S32      S        0.58201    0.66591    0.13757    1.000
    Mo33     Mo       0.91528    0.58278    0.06853    1.000
    S34      S        0.83217    0.66632    0.99952    1.000
    S35      S        0.83181    0.66601    0.13746    1.000
    Mo36     Mo       0.16521    0.83279    0.06864    1.000
    S37      S        0.08192    0.91617    0.99969    1.000
    S38      S        0.08187    0.91616    0.13759    1.000
    Mo39     Mo       0.41518    0.83273    0.06871    1.000
    S40      S        0.33190    0.91607    0.99972    1.000
    S41      S        0.33187    0.91618    0.13761    1.000
    Mo42     Mo       0.66520    0.83275    0.06867    1.000
    S43      S        0.58180    0.91603    0.99976    1.000
    S44      S        0.58187    0.91608    0.13766    1.000
    Mo45     Mo       0.91524    0.83282    0.06860    1.000
    S46      S        0.83183    0.91611    0.99969    1.000
    S47      S        0.83190    0.91608    0.13759    1.000
    C48      C        0.66687    0.46162    0.28668    1.000
    H49      H        0.68920    0.54084    0.26184    1.000
    H50      H        0.69040    0.40499    0.26240    1.000
    H51      H        0.71481    0.48651    0.32767    1.000
    S52      S        0.50843    0.38190    0.30629    1.000
    H53      H        0.46562    0.36521    0.25152    1.000
