# CIF file generated by openbabel 3.1.0, see https://openbabel.org
data_I
_chemical_name_common ''
_cell_length_a 13.105
_cell_length_b 13.105
_cell_length_c 23.0122
_cell_angle_alpha 90
_cell_angle_beta 90
_cell_angle_gamma 120
loop_
    _atom_site_label
    _atom_site_type_symbol
    _atom_site_fract_x
    _atom_site_fract_y
    _atom_site_fract_z
    _atom_site_occupancy
    Mo0      Mo       0.16748    0.08316    0.06871    1.000
    S1       S        0.08419    0.16655    0.99973    1.000
    S2       S        0.08408    0.16647    0.13769    1.000
    Mo3      Mo       0.41746    0.08312    0.06871    1.000
    S4       S        0.33410    0.16643    0.99973    1.000
    S5       S        0.33413    0.16646    0.13769    1.000
    Mo6      Mo       0.66748    0.08318    0.06866    1.000
    S7       S        0.58409    0.16648    0.99971    1.000
    S8       S        0.58413    0.16646    0.13767    1.000
    Mo9      Mo       0.91749    0.08319    0.06865    1.000
    S10      S        0.83417    0.16660    0.99971    1.000
    S11      S        0.83409    0.16645    0.13766    1.000
    Mo12     Mo       0.16750    0.33312    0.06873    1.000
    S13      S        0.08422    0.41650    0.99978    1.000
    S14      S        0.08422    0.41647    0.13774    1.000
    Mo15     Mo       0.41756    0.33309    0.06867    1.000
    S16      S        0.33412    0.41633    0.99972    1.000
    S17      S        0.33426    0.41644    0.13763    1.000
    Mo18     Mo       0.66750    0.33314    0.06868    1.000
    S19      S        0.58414    0.41632    0.99964    1.000
    S20      S        0.58420    0.41651    0.13765    1.000
    Mo21     Mo       0.91751    0.33317    0.06874    1.000
    S22      S        0.83420    0.41646    0.99973    1.000
    S23      S        0.83410    0.41647    0.13770    1.000
    Mo24     Mo       0.16755    0.58313    0.06876    1.000
    S25      S        0.08419    0.66639    0.99975    1.000
    S26      S        0.08417    0.66644    0.13770    1.000
    Mo27     Mo       0.41747    0.58311    0.06859    1.000
    S28      S        0.33409    0.66649    0.99972    1.000
    S29      S        0.33436    0.66651    0.13771    1.000
    Mo30     Mo       0.66756    0.58308    0.06851    1.000
    S31      S        0.58414    0.66642    0.99953    1.000
    S32      S        0.58445    0.66686    0.13715    1.000
    Mo33     Mo       0.91752    0.58310    0.06870    1.000
    S34      S        0.83432    0.66651    0.99965    1.000
    S35      S        0.83415    0.66651    0.13762    1.000
    Mo36     Mo       0.16753    0.83309    0.06870    1.000
    S37      S        0.08430    0.91652    0.99971    1.000
    S38      S        0.08417    0.91645    0.13765    1.000
    Mo39     Mo       0.41760    0.83316    0.06867    1.000
    S40      S        0.33418    0.91645    0.99972    1.000
    S41      S        0.33421    0.91643    0.13767    1.000
    Mo42     Mo       0.66771    0.83335    0.06841    1.000
    S43      S        0.58416    0.91661    0.99959    1.000
    S44      S        0.58435    0.91642    0.13758    1.000
    Mo45     Mo       0.91757    0.83321    0.06863    1.000
    S46      S        0.83445    0.91665    0.99957    1.000
    S47      S        0.83411    0.91645    0.13757    1.000
    C48      C        0.47830    0.58839    0.28724    1.000
    H49      H        0.41878    0.51065    0.26210    1.000
    H50      H        0.49391    0.66807    0.26477    1.000
    H51      H        0.43932    0.58421    0.32959    1.000
    S52      S        0.61887    0.59158    0.30209    1.000
    H53      H        0.65413    0.59994    0.24623    1.000
