# CIF file generated by openbabel 3.1.0, see https://openbabel.org
data_I
_chemical_name_common ''
_cell_length_a 13.105
_cell_length_b 13.105
_cell_length_c 23.0122
_cell_angle_alpha 90
_cell_angle_beta 90
_cell_angle_gamma 120
loop_
    _atom_site_label
    _atom_site_type_symbol
    _atom_site_fract_x
    _atom_site_fract_y
    _atom_site_fract_z
    _atom_site_occupancy
    Mo0      Mo       0.16761    0.08390    0.06814    1.000
    S1       S        0.08417    0.16705    0.99912    1.000
    S2       S        0.08445    0.16739    0.13711    1.000
    Mo3      Mo       0.41755    0.08383    0.06819    1.000
    S4       S        0.33415    0.16694    0.99909    1.000
    S5       S        0.33430    0.16743    0.13711    1.000
    Mo6      Mo       0.66754    0.08382    0.06816    1.000
    S7       S        0.58419    0.16713    0.99919    1.000
    S8       S        0.58425    0.16722    0.13714    1.000
    Mo9      Mo       0.91762    0.08385    0.06818    1.000
    S10      S        0.83426    0.16718    0.99922    1.000
    S11      S        0.83424    0.16717    0.13714    1.000
    Mo12     Mo       0.16754    0.33381    0.06795    1.000
    S13      S        0.08417    0.41721    0.99912    1.000
    S14      S        0.08445    0.41715    0.13711    1.000
    Mo15     Mo       0.41771    0.33377    0.06788    1.000
    S16      S        0.33427    0.41718    0.99893    1.000
    S17      S        0.33447    0.41728    0.13651    1.000
    Mo18     Mo       0.66766    0.33384    0.06811    1.000
    S19      S        0.58445    0.41718    0.99901    1.000
    S20      S        0.58418    0.41711    0.13697    1.000
    Mo21     Mo       0.91762    0.33387    0.06818    1.000
    S22      S        0.83430    0.41713    0.99918    1.000
    S23      S        0.83422    0.41712    0.13717    1.000
    Mo24     Mo       0.16761    0.58381    0.06814    1.000
    S25      S        0.08423    0.66720    0.99922    1.000
    S26      S        0.08424    0.66710    0.13714    1.000
    Mo27     Mo       0.41771    0.58403    0.06788    1.000
    S28      S        0.33415    0.66730    0.99909    1.000
    S29      S        0.33431    0.66696    0.13711    1.000
    Mo30     Mo       0.66755    0.58383    0.06801    1.000
    S31      S        0.58444    0.66736    0.99901    1.000
    S32      S        0.58418    0.66718    0.13697    1.000
    Mo33     Mo       0.91754    0.58377    0.06818    1.000
    S34      S        0.83435    0.66722    0.99917    1.000
    S35      S        0.83405    0.66708    0.13711    1.000
    Mo36     Mo       0.16761    0.83385    0.06821    1.000
    S37      S        0.08423    0.91712    0.99922    1.000
    S38      S        0.08424    0.91723    0.13714    1.000
    Mo39     Mo       0.41755    0.83380    0.06819    1.000
    S40      S        0.33427    0.91718    0.99924    1.000
    S41      S        0.33428    0.91718    0.13720    1.000
    Mo42     Mo       0.66766    0.83391    0.06810    1.000
    S43      S        0.58419    0.91716    0.99919    1.000
    S44      S        0.58425    0.91712    0.13713    1.000
    Mo45     Mo       0.91754    0.83386    0.06818    1.000
    S46      S        0.83431    0.91726    0.99917    1.000
    S47      S        0.83421    0.91719    0.13716    1.000
    C48      C        0.32765    0.41495    0.29237    1.000
    H49      H        0.30107    0.33349    0.26871    1.000
    H50      H        0.30014    0.46947    0.26907    1.000
    H51      H        0.28733    0.39417    0.33531    1.000
    S52      S        0.48911    0.49620    0.30478    1.000
    H53      H        0.52140    0.51003    0.24825    1.000
