# CIF file generated by openbabel 3.1.0, see https://openbabel.org
data_I
_chemical_name_common ''
_cell_length_a 13.105
_cell_length_b 13.105
_cell_length_c 23.0122
_cell_angle_alpha 90
_cell_angle_beta 90
_cell_angle_gamma 120
loop_
    _atom_site_label
    _atom_site_type_symbol
    _atom_site_fract_x
    _atom_site_fract_y
    _atom_site_fract_z
    _atom_site_occupancy
    Mo0      Mo       0.16501    0.08064    0.06883    1.000
    S1       S        0.08174    0.16408    0.99995    1.000
    S2       S        0.08190    0.16405    0.13791    1.000
    Mo3      Mo       0.41529    0.08065    0.06883    1.000
    S4       S        0.33183    0.16402    0.99991    1.000
    S5       S        0.33165    0.16365    0.13767    1.000
    Mo6      Mo       0.66522    0.08076    0.06899    1.000
    S7       S        0.58197    0.16401    0.99991    1.000
    S8       S        0.58183    0.16410    0.13789    1.000
    Mo9      Mo       0.91519    0.08077    0.06899    1.000
    S10      S        0.83188    0.16410    0.00003    1.000
    S11      S        0.83189    0.16414    0.13796    1.000
    Mo12     Mo       0.16513    0.33068    0.06892    1.000
    S13      S        0.08189    0.41412    0.00000    1.000
    S14      S        0.08192    0.41407    0.13794    1.000
    Mo15     Mo       0.41519    0.33069    0.06892    1.000
    S16      S        0.33190    0.41412    1.00000    1.000
    S17      S        0.33159    0.41391    0.13789    1.000
    Mo18     Mo       0.66523    0.33065    0.06885    1.000
    S19      S        0.58186    0.41409    0.99994    1.000
    S20      S        0.58208    0.41387    0.13780    1.000
    Mo21     Mo       0.91523    0.33078    0.06898    1.000
    S22      S        0.83199    0.41414    0.99996    1.000
    S23      S        0.83178    0.41406    0.13790    1.000
    Mo24     Mo       0.16524    0.58073    0.06898    1.000
    S25      S        0.08190    0.66409    0.00004    1.000
    S26      S        0.08185    0.66408    0.13790    1.000
    Mo27     Mo       0.41518    0.58071    0.06902    1.000
    S28      S        0.33194    0.66407    0.00005    1.000
    S29      S        0.33186    0.66406    0.13800    1.000
    Mo30     Mo       0.66519    0.58070    0.06898    1.000
    S31      S        0.58181    0.66401    0.00008    1.000
    S32      S        0.58196    0.66422    0.13797    1.000
    Mo33     Mo       0.91516    0.58074    0.06896    1.000
    S34      S        0.83180    0.66409    0.00002    1.000
    S35      S        0.83183    0.66403    0.13798    1.000
    Mo36     Mo       0.16522    0.83078    0.06894    1.000
    S37      S        0.08169    0.91393    0.99995    1.000
    S38      S        0.08185    0.91413    0.13788    1.000
    Mo39     Mo       0.41523    0.83071    0.06899    1.000
    S40      S        0.33189    0.91392    0.99995    1.000
    S41      S        0.33195    0.91415    0.13789    1.000
    Mo42     Mo       0.66521    0.83076    0.06900    1.000
    S43      S        0.58193    0.91405    0.00005    1.000
    S44      S        0.58186    0.91409    0.13796    1.000
    Mo45     Mo       0.91513    0.83071    0.06898    1.000
    S46      S        0.83180    0.91408    0.00005    1.000
    S47      S        0.83190    0.91410    0.13796    1.000
    C48      C        0.49495    0.48279    0.28509    1.000
    H49      H        0.43863    0.50879    0.26236    1.000
    H50      H        0.57528    0.50935    0.26039    1.000
    H51      H        0.51779    0.52489    0.32760    1.000
    S52      S        0.41575    0.32212    0.29931    1.000
    H53      H        0.39437    0.28650    0.24332    1.000
