# CIF file generated by openbabel 3.1.0, see https://openbabel.org
data_I
_chemical_name_common ''
_cell_length_a 13.105
_cell_length_b 13.105
_cell_length_c 23.0122
_cell_angle_alpha 90
_cell_angle_beta 90
_cell_angle_gamma 120
loop_
    _atom_site_label
    _atom_site_type_symbol
    _atom_site_fract_x
    _atom_site_fract_y
    _atom_site_fract_z
    _atom_site_occupancy
    Mo0      Mo       0.16754    0.08508    0.06780    1.000
    S1       S        0.08414    0.16835    0.99883    1.000
    S2       S        0.08445    0.16859    0.13678    1.000
    Mo3      Mo       0.41737    0.08493    0.06789    1.000
    S4       S        0.33417    0.16827    0.99880    1.000
    S5       S        0.33418    0.16856    0.13674    1.000
    Mo6      Mo       0.66744    0.08490    0.06800    1.000
    S7       S        0.58408    0.16810    0.99898    1.000
    S8       S        0.58400    0.16823    0.13685    1.000
    Mo9      Mo       0.91760    0.08503    0.06793    1.000
    S10      S        0.83406    0.16817    0.99901    1.000
    S11      S        0.83419    0.16826    0.13688    1.000
    Mo12     Mo       0.16755    0.33510    0.06770    1.000
    S13      S        0.08417    0.41849    0.99893    1.000
    S14      S        0.08426    0.41817    0.13690    1.000
    Mo15     Mo       0.41765    0.33507    0.06766    1.000
    S16      S        0.33441    0.41872    0.99872    1.000
    S17      S        0.33428    0.41833    0.13648    1.000
    Mo18     Mo       0.66743    0.33486    0.06789    1.000
    S19      S        0.58442    0.41847    0.99887    1.000
    S20      S        0.58401    0.41817    0.13685    1.000
    Mo21     Mo       0.91751    0.33490    0.06793    1.000
    S22      S        0.83413    0.41816    0.99899    1.000
    S23      S        0.83401    0.41803    0.13688    1.000
    Mo24     Mo       0.16747    0.58495    0.06802    1.000
    S25      S        0.08405    0.66824    0.99911    1.000
    S26      S        0.08404    0.66817    0.13700    1.000
    Mo27     Mo       0.41771    0.58529    0.06786    1.000
    S28      S        0.33416    0.66853    0.99908    1.000
    S29      S        0.33410    0.66833    0.13699    1.000
    Mo30     Mo       0.66758    0.58497    0.06797    1.000
    S31      S        0.58447    0.66860    0.99905    1.000
    S32      S        0.58442    0.66840    0.13693    1.000
    Mo33     Mo       0.91742    0.58481    0.06802    1.000
    S34      S        0.83431    0.66831    0.99908    1.000
    S35      S        0.83415    0.66820    0.13698    1.000
    Mo36     Mo       0.16741    0.83491    0.06804    1.000
    S37      S        0.08403    0.91808    0.99903    1.000
    S38      S        0.08425    0.91854    0.13688    1.000
    Mo39     Mo       0.41745    0.83503    0.06811    1.000
    S40      S        0.33404    0.91813    0.99908    1.000
    S41      S        0.33402    0.91842    0.13699    1.000
    Mo42     Mo       0.66763    0.83511    0.06809    1.000
    S43      S        0.58406    0.91818    0.99917    1.000
    S44      S        0.58419    0.91840    0.13708    1.000
    Mo45     Mo       0.91749    0.83496    0.06803    1.000
    S46      S        0.83414    0.91828    0.99908    1.000
    S47      S        0.83440    0.91849    0.13700    1.000
    C48      C        0.33213    0.41434    0.29575    1.000
    H49      H        0.38286    0.37952    0.27478    1.000
    H50      H        0.24955    0.38552    0.27273    1.000
    H51      H        0.31330    0.38301    0.34044    1.000
    S52      S        0.41849    0.57730    0.30034    1.000
    H53      H        0.42772    0.59857    0.24260    1.000
