# CIF file generated by openbabel 3.1.0, see https://openbabel.org
data_I
_chemical_name_common ''
_cell_length_a 13.105
_cell_length_b 13.105
_cell_length_c 23.0122
_cell_angle_alpha 90
_cell_angle_beta 90
_cell_angle_gamma 120
loop_
    _atom_site_label
    _atom_site_type_symbol
    _atom_site_fract_x
    _atom_site_fract_y
    _atom_site_fract_z
    _atom_site_occupancy
    Mo0      Mo       0.16704    0.08461    0.06893    1.000
    S1       S        0.08368    0.16802    0.00006    1.000
    S2       S        0.08385    0.16799    0.13800    1.000
    Mo3      Mo       0.41716    0.08460    0.06893    1.000
    S4       S        0.33383    0.16808    0.00002    1.000
    S5       S        0.33356    0.16752    0.13786    1.000
    Mo6      Mo       0.66717    0.08468    0.06908    1.000
    S7       S        0.58394    0.16801    0.00006    1.000
    S8       S        0.58374    0.16799    0.13799    1.000
    Mo9      Mo       0.91711    0.08469    0.06908    1.000
    S10      S        0.83380    0.16800    0.00011    1.000
    S11      S        0.83382    0.16806    0.13803    1.000
    Mo12     Mo       0.16708    0.33466    0.06902    1.000
    S13      S        0.08383    0.41810    0.00011    1.000
    S14      S        0.08375    0.41798    0.13802    1.000
    Mo15     Mo       0.41708    0.33457    0.06911    1.000
    S16      S        0.33386    0.41794    0.00011    1.000
    S17      S        0.33356    0.41799    0.13798    1.000
    Mo18     Mo       0.66719    0.33466    0.06900    1.000
    S19      S        0.58366    0.41793    0.00010    1.000
    S20      S        0.58403    0.41798    0.13795    1.000
    Mo21     Mo       0.91714    0.33468    0.06905    1.000
    S22      S        0.83388    0.41810    0.00010    1.000
    S23      S        0.83382    0.41798    0.13802    1.000
    Mo24     Mo       0.16716    0.58471    0.06911    1.000
    S25      S        0.08379    0.66797    0.00013    1.000
    S26      S        0.08386    0.66811    0.13804    1.000
    Mo27     Mo       0.41709    0.58465    0.06907    1.000
    S28      S        0.33379    0.66795    0.00013    1.000
    S29      S        0.33383    0.66800    0.13808    1.000
    Mo30     Mo       0.66715    0.58465    0.06906    1.000
    S31      S        0.58380    0.66801    0.00013    1.000
    S32      S        0.58383    0.66807    0.13800    1.000
    Mo33     Mo       0.91716    0.58471    0.06910    1.000
    S34      S        0.83377    0.66796    0.00013    1.000
    S35      S        0.83377    0.66801    0.13808    1.000
    Mo36     Mo       0.16713    0.83467    0.06901    1.000
    S37      S        0.08369    0.91790    0.00004    1.000
    S38      S        0.08380    0.91802    0.13795    1.000
    Mo39     Mo       0.41715    0.83463    0.06907    1.000
    S40      S        0.33381    0.91789    0.00004    1.000
    S41      S        0.33382    0.91802    0.13795    1.000
    Mo42     Mo       0.66717    0.83474    0.06909    1.000
    S43      S        0.58384    0.91801    0.00014    1.000
    S44      S        0.58379    0.91803    0.13805    1.000
    Mo45     Mo       0.91708    0.83464    0.06906    1.000
    S46      S        0.83377    0.91801    0.00014    1.000
    S47      S        0.83383    0.91803    0.13805    1.000
    C48      C        0.41712    0.33056    0.28273    1.000
    H49      H        0.47517    0.30763    0.25938    1.000
    H50      H        0.33926    0.30847    0.25678    1.000
    H51      H        0.39019    0.28199    0.32350    1.000
    S52      S        0.49568    0.48859    0.30275    1.000
    H53      H        0.52155    0.53203    0.24811    1.000
