# CIF file generated by openbabel 3.1.0, see https://openbabel.org
data_I
_chemical_name_common ''
_cell_length_a 13.105
_cell_length_b 13.105
_cell_length_c 23.0122
_cell_angle_alpha 90
_cell_angle_beta 90
_cell_angle_gamma 120
loop_
    _atom_site_label
    _atom_site_type_symbol
    _atom_site_fract_x
    _atom_site_fract_y
    _atom_site_fract_z
    _atom_site_occupancy
    Mo0      Mo       0.16445    0.08251    0.06843    1.000
    S1       S        0.08128    0.16599    0.99950    1.000
    S2       S        0.08132    0.16601    0.13745    1.000
    Mo3      Mo       0.41467    0.08266    0.06833    1.000
    S4       S        0.33100    0.16568    0.99935    1.000
    S5       S        0.33129    0.16598    0.13723    1.000
    Mo6      Mo       0.66453    0.08263    0.06842    1.000
    S7       S        0.58123    0.16580    0.99930    1.000
    S8       S        0.58132    0.16625    0.13731    1.000
    Mo9      Mo       0.91460    0.08266    0.06846    1.000
    S10      S        0.83127    0.16596    0.99950    1.000
    S11      S        0.83118    0.16597    0.13740    1.000
    Mo12     Mo       0.16444    0.33264    0.06843    1.000
    S13      S        0.08114    0.41592    0.99948    1.000
    S14      S        0.08112    0.41595    0.13744    1.000
    Mo15     Mo       0.41427    0.33249    0.06814    1.000
    S16      S        0.33099    0.41604    0.99935    1.000
    S17      S        0.33128    0.41603    0.13722    1.000
    Mo18     Mo       0.66460    0.33254    0.06811    1.000
    S19      S        0.58106    0.41589    0.99913    1.000
    S20      S        0.58116    0.41594    0.13675    1.000
    Mo21     Mo       0.91451    0.33267    0.06843    1.000
    S22      S        0.83142    0.41601    0.99931    1.000
    S23      S        0.83096    0.41597    0.13729    1.000
    Mo24     Mo       0.16459    0.58258    0.06845    1.000
    S25      S        0.08140    0.66605    0.99948    1.000
    S26      S        0.08115    0.66593    0.13734    1.000
    Mo27     Mo       0.41467    0.58273    0.06833    1.000
    S28      S        0.33123    0.66603    0.99945    1.000
    S29      S        0.33134    0.66594    0.13738    1.000
    Mo30     Mo       0.66461    0.58278    0.06811    1.000
    S31      S        0.58124    0.66614    0.99931    1.000
    S32      S        0.58132    0.66577    0.13731    1.000
    Mo33     Mo       0.91449    0.58260    0.06831    1.000
    S34      S        0.83142    0.66612    0.99930    1.000
    S35      S        0.83097    0.66573    0.13728    1.000
    Mo36     Mo       0.16459    0.83272    0.06844    1.000
    S37      S        0.08114    0.91593    0.99947    1.000
    S38      S        0.08112    0.91588    0.13744    1.000
    Mo39     Mo       0.41456    0.83264    0.06844    1.000
    S40      S        0.33123    0.91593    0.99945    1.000
    S41      S        0.33133    0.91611    0.13738    1.000
    Mo42     Mo       0.66453    0.83261    0.06842    1.000
    S43      S        0.58123    0.91597    0.99947    1.000
    S44      S        0.58122    0.91597    0.13740    1.000
    Mo45     Mo       0.91451    0.83257    0.06842    1.000
    S46      S        0.83125    0.91603    0.99949    1.000
    S47      S        0.83117    0.91592    0.13740    1.000
    C48      C        0.43511    0.34264    0.28745    1.000
    H49      H        0.41337    0.26311    0.26300    1.000
    H50      H        0.41472    0.40032    0.26204    1.000
    H51      H        0.38393    0.31830    0.32747    1.000
    S52      S        0.59175    0.42029    0.31029    1.000
    H53      H        0.63866    0.44141    0.25631    1.000
