# CIF file generated by openbabel 3.1.0, see https://openbabel.org
data_I
_chemical_name_common ''
_cell_length_a 13.105
_cell_length_b 13.105
_cell_length_c 23.0122
_cell_angle_alpha 90
_cell_angle_beta 90
_cell_angle_gamma 120
loop_
    _atom_site_label
    _atom_site_type_symbol
    _atom_site_fract_x
    _atom_site_fract_y
    _atom_site_fract_z
    _atom_site_occupancy
    C0       C        0.48412    0.54902    0.44270    1.000
    H1       H        0.43329    0.54066    0.48158    1.000
    H2       H        0.43294    0.54034    0.40391    1.000
    H3       H        0.56391    0.63499    0.44260    1.000
    S4       S        0.53395    0.43927    0.44274    1.000
    H5       H        0.42562    0.34256    0.44270    1.000
