# CIF file generated by openbabel 3.1.0, see https://openbabel.org
data_I
_chemical_name_common ''
_cell_length_a 13.105
_cell_length_b 13.105
_cell_length_c 23.0122
_cell_angle_alpha 90
_cell_angle_beta 90
_cell_angle_gamma 120
loop_
    _atom_site_label
    _atom_site_type_symbol
    _atom_site_fract_x
    _atom_site_fract_y
    _atom_site_fract_z
    _atom_site_occupancy
    Mo0      Mo       0.16645    0.08327    0.06905    1.000
    S1       S        0.08298    0.16657    0.00016    1.000
    S2       S        0.08326    0.16671    0.13809    1.000
    Mo3      Mo       0.41651    0.08335    0.06903    1.000
    S4       S        0.33297    0.16642    0.99998    1.000
    S5       S        0.33323    0.16682    0.13795    1.000
    Mo6      Mo       0.66649    0.08327    0.06905    1.000
    S7       S        0.58312    0.16642    0.99998    1.000
    S8       S        0.58325    0.16681    0.13795    1.000
    Mo9      Mo       0.91649    0.08332    0.06919    1.000
    S10      S        0.83326    0.16657    0.00016    1.000
    S11      S        0.83312    0.16671    0.13809    1.000
    Mo12     Mo       0.16647    0.33334    0.06905    1.000
    S13      S        0.08321    0.41674    0.00009    1.000
    S14      S        0.08317    0.41666    0.13805    1.000
    Mo15     Mo       0.41635    0.33324    0.06878    1.000
    S16      S        0.33298    0.41669    0.99998    1.000
    S17      S        0.33325    0.41657    0.13795    1.000
    Mo18     Mo       0.66655    0.33324    0.06878    1.000
    S19      S        0.58314    0.41662    0.99975    1.000
    S20      S        0.58315    0.41664    0.13741    1.000
    Mo21     Mo       0.91654    0.33334    0.06905    1.000
    S22      S        0.83338    0.41669    0.99998    1.000
    S23      S        0.83298    0.41657    0.13795    1.000
    Mo24     Mo       0.16650    0.58333    0.06912    1.000
    S25      S        0.08325    0.66670    0.00015    1.000
    S26      S        0.08304    0.66660    0.13807    1.000
    Mo27     Mo       0.41652    0.58329    0.06902    1.000
    S28      S        0.33313    0.66670    0.00015    1.000
    S29      S        0.33323    0.66660    0.13807    1.000
    Mo30     Mo       0.66655    0.58343    0.06877    1.000
    S31      S        0.58311    0.66681    0.99997    1.000
    S32      S        0.58325    0.66655    0.13795    1.000
    Mo33     Mo       0.91645    0.58330    0.06902    1.000
    S34      S        0.83337    0.66681    0.99997    1.000
    S35      S        0.83296    0.66655    0.13794    1.000
    Mo36     Mo       0.16649    0.83332    0.06912    1.000
    S37      S        0.08319    0.91661    0.00009    1.000
    S38      S        0.08314    0.91664    0.13805    1.000
    Mo39     Mo       0.41650    0.83332    0.06912    1.000
    S40      S        0.33312    0.91657    0.00015    1.000
    S41      S        0.33322    0.91677    0.13807    1.000
    Mo42     Mo       0.66648    0.83333    0.06905    1.000
    S43      S        0.58309    0.91660    0.00009    1.000
    S44      S        0.58318    0.91664    0.13805    1.000
    Mo45     Mo       0.91652    0.83334    0.06905    1.000
    S46      S        0.83325    0.91683    0.00016    1.000
    S47      S        0.83311    0.91655    0.13808    1.000
    H48      H        0.53937    0.46441    0.32275    1.000
    C49      C        0.58236    0.41537    0.30930    1.000
    H50      H        0.58260    0.41084    0.26204    1.000
    H51      H        0.53461    0.32642    0.32706    1.000
    H52      H        0.67283    0.45975    0.32520    1.000
