# CIF file generated by openbabel 3.1.0, see https://openbabel.org
data_I
_chemical_name_common ''
_cell_length_a 13.105
_cell_length_b 13.105
_cell_length_c 23.0122
_cell_angle_alpha 90
_cell_angle_beta 90
_cell_angle_gamma 120
loop_
    _atom_site_label
    _atom_site_type_symbol
    _atom_site_fract_x
    _atom_site_fract_y
    _atom_site_fract_z
    _atom_site_occupancy
    Mo0      Mo       0.16650    0.08349    0.06871    1.000
    S1       S        0.08322    0.16691    0.99979    1.000
    S2       S        0.08333    0.16695    0.13772    1.000
    Mo3      Mo       0.41662    0.08349    0.06871    1.000
    S4       S        0.33319    0.16676    0.99977    1.000
    S5       S        0.33313    0.16664    0.13760    1.000
    Mo6      Mo       0.66664    0.08361    0.06878    1.000
    S7       S        0.58331    0.16690    0.99979    1.000
    S8       S        0.58326    0.16696    0.13772    1.000
    Mo9      Mo       0.91660    0.08361    0.06878    1.000
    S10      S        0.83329    0.16695    0.99983    1.000
    S11      S        0.83329    0.16695    0.13776    1.000
    Mo12     Mo       0.16653    0.33358    0.06872    1.000
    S13      S        0.08323    0.41694    0.99979    1.000
    S14      S        0.08334    0.41697    0.13773    1.000
    Mo15     Mo       0.41659    0.33354    0.06873    1.000
    S16      S        0.33323    0.41696    0.99978    1.000
    S17      S        0.33317    0.41701    0.13760    1.000
    Mo18     Mo       0.66669    0.33358    0.06871    1.000
    S19      S        0.58337    0.41696    0.99978    1.000
    S20      S        0.58348    0.41702    0.13759    1.000
    Mo21     Mo       0.91663    0.33362    0.06879    1.000
    S22      S        0.83335    0.41694    0.99979    1.000
    S23      S        0.83327    0.41697    0.13773    1.000
    Mo24     Mo       0.16663    0.58360    0.06875    1.000
    S25      S        0.08328    0.66692    0.99978    1.000
    S26      S        0.08328    0.66692    0.13769    1.000
    Mo27     Mo       0.41664    0.58367    0.06872    1.000
    S28      S        0.33331    0.66698    0.99979    1.000
    S29      S        0.33327    0.66687    0.13773    1.000
    Mo30     Mo       0.66666    0.58367    0.06871    1.000
    S31      S        0.58332    0.66701    0.99979    1.000
    S32      S        0.58328    0.66692    0.13771    1.000
    Mo33     Mo       0.91661    0.58360    0.06875    1.000
    S34      S        0.83331    0.66699    0.99979    1.000
    S35      S        0.83323    0.66687    0.13773    1.000
    Mo36     Mo       0.16660    0.83358    0.06875    1.000
    S37      S        0.08317    0.91682    0.99979    1.000
    S38      S        0.08328    0.91690    0.13773    1.000
    Mo39     Mo       0.41663    0.83358    0.06879    1.000
    S40      S        0.33328    0.91682    0.99979    1.000
    S41      S        0.33325    0.91690    0.13773    1.000
    Mo42     Mo       0.66664    0.83365    0.06878    1.000
    S43      S        0.58331    0.91697    0.99982    1.000
    S44      S        0.58332    0.91696    0.13776    1.000
    Mo45     Mo       0.91658    0.83359    0.06879    1.000
    S46      S        0.83329    0.91697    0.99982    1.000
    S47      S        0.83328    0.91696    0.13776    1.000
    H48      H        0.37174    0.24367    0.30778    1.000
    C49      C        0.41707    0.33421    0.29197    1.000
    H50      H        0.41747    0.33399    0.24464    1.000
    H51      H        0.50757    0.37975    0.30784    1.000
    H52      H        0.37152    0.37951    0.30736    1.000
