# CIF file generated by openbabel 3.1.0, see https://openbabel.org
data_I
_chemical_name_common ''
_cell_length_a 13.105
_cell_length_b 13.105
_cell_length_c 23.0122
_cell_angle_alpha 90
_cell_angle_beta 90
_cell_angle_gamma 120
loop_
    _atom_site_label
    _atom_site_type_symbol
    _atom_site_fract_x
    _atom_site_fract_y
    _atom_site_fract_z
    _atom_site_occupancy
    Mo0      Mo       0.16642    0.08331    0.06906    1.000
    S1       S        0.08292    0.16660    0.00018    1.000
    S2       S        0.08325    0.16676    0.13811    1.000
    Mo3      Mo       0.41648    0.08341    0.06903    1.000
    S4       S        0.33293    0.16645    0.99998    1.000
    S5       S        0.33322    0.16688    0.13795    1.000
    Mo6      Mo       0.66645    0.08331    0.06907    1.000
    S7       S        0.58309    0.16646    0.99998    1.000
    S8       S        0.58322    0.16688    0.13795    1.000
    Mo9      Mo       0.91646    0.08336    0.06923    1.000
    S10      S        0.83323    0.16660    0.00019    1.000
    S11      S        0.83307    0.16676    0.13811    1.000
    Mo12     Mo       0.16643    0.33338    0.06907    1.000
    S13      S        0.08317    0.41679    0.00010    1.000
    S14      S        0.08313    0.41669    0.13807    1.000
    Mo15     Mo       0.41629    0.33327    0.06877    1.000
    S16      S        0.33294    0.41673    0.99998    1.000
    S17      S        0.33324    0.41661    0.13795    1.000
    Mo18     Mo       0.66653    0.33328    0.06878    1.000
    S19      S        0.58312    0.41667    0.99976    1.000
    S20      S        0.58311    0.41669    0.13739    1.000
    Mo21     Mo       0.91651    0.33338    0.06907    1.000
    S22      S        0.83335    0.41673    0.99998    1.000
    S23      S        0.83293    0.41661    0.13795    1.000
    Mo24     Mo       0.16646    0.58336    0.06915    1.000
    S25      S        0.08322    0.66675    0.00018    1.000
    S26      S        0.08298    0.66663    0.13809    1.000
    Mo27     Mo       0.41649    0.58333    0.06903    1.000
    S28      S        0.33308    0.66675    0.00017    1.000
    S29      S        0.33320    0.66662    0.13809    1.000
    Mo30     Mo       0.66653    0.58350    0.06877    1.000
    S31      S        0.58308    0.66687    0.99997    1.000
    S32      S        0.58322    0.66658    0.13795    1.000
    Mo33     Mo       0.91641    0.58334    0.06903    1.000
    S34      S        0.83335    0.66687    0.99998    1.000
    S35      S        0.83292    0.66658    0.13795    1.000
    Mo36     Mo       0.16645    0.83337    0.06915    1.000
    S37      S        0.08316    0.91664    0.00010    1.000
    S38      S        0.08310    0.91670    0.13807    1.000
    Mo39     Mo       0.41647    0.83337    0.06915    1.000
    S40      S        0.33308    0.91660    0.00018    1.000
    S41      S        0.33320    0.91684    0.13809    1.000
    Mo42     Mo       0.66644    0.83338    0.06906    1.000
    S43      S        0.58304    0.91665    0.00010    1.000
    S44      S        0.58315    0.91669    0.13807    1.000
    Mo45     Mo       0.91650    0.83338    0.06906    1.000
    S46      S        0.83323    0.91690    0.00018    1.000
    S47      S        0.83306    0.91656    0.13811    1.000
    H48      H        0.49110    0.37038    0.32344    1.000
    C49      C        0.58268    0.41495    0.30918    1.000
    H50      H        0.58577    0.41459    0.26188    1.000
    H51      H        0.62624    0.36911    0.32649    1.000
    H52      H        0.62760    0.50565    0.32476    1.000
