# CIF file generated by openbabel 3.1.0, see https://openbabel.org
data_I
_chemical_name_common ''
_cell_length_a 13.105
_cell_length_b 13.105
_cell_length_c 23.0122
_cell_angle_alpha 90
_cell_angle_beta 90
_cell_angle_gamma 120
loop_
    _atom_site_label
    _atom_site_type_symbol
    _atom_site_fract_x
    _atom_site_fract_y
    _atom_site_fract_z
    _atom_site_occupancy
    Mo0      Mo       0.16662    0.08359    0.06872    1.000
    S1       S        0.08336    0.16704    0.99981    1.000
    S2       S        0.08344    0.16704    0.13774    1.000
    Mo3      Mo       0.41675    0.08360    0.06872    1.000
    S4       S        0.33333    0.16690    0.99978    1.000
    S5       S        0.33324    0.16671    0.13763    1.000
    Mo6      Mo       0.66678    0.08373    0.06879    1.000
    S7       S        0.58345    0.16704    0.99980    1.000
    S8       S        0.58339    0.16704    0.13773    1.000
    Mo9      Mo       0.91673    0.08373    0.06879    1.000
    S10      S        0.83343    0.16708    0.99983    1.000
    S11      S        0.83342    0.16707    0.13777    1.000
    Mo12     Mo       0.16666    0.33370    0.06875    1.000
    S13      S        0.08336    0.41705    0.99981    1.000
    S14      S        0.08345    0.41710    0.13775    1.000
    Mo15     Mo       0.41670    0.33365    0.06878    1.000
    S16      S        0.33336    0.41707    0.99981    1.000
    S17      S        0.33329    0.41712    0.13766    1.000
    Mo18     Mo       0.66680    0.33370    0.06874    1.000
    S19      S        0.58346    0.41706    0.99981    1.000
    S20      S        0.58359    0.41712    0.13765    1.000
    Mo21     Mo       0.91675    0.33374    0.06880    1.000
    S22      S        0.83345    0.41705    0.99981    1.000
    S23      S        0.83340    0.41710    0.13775    1.000
    Mo24     Mo       0.16676    0.58373    0.06876    1.000
    S25      S        0.08340    0.66702    0.99977    1.000
    S26      S        0.08341    0.66705    0.13771    1.000
    Mo27     Mo       0.41677    0.58378    0.06875    1.000
    S28      S        0.33345    0.66709    0.99981    1.000
    S29      S        0.33340    0.66701    0.13775    1.000
    Mo30     Mo       0.66678    0.58378    0.06875    1.000
    S31      S        0.58343    0.66710    0.99982    1.000
    S32      S        0.58342    0.66706    0.13775    1.000
    Mo33     Mo       0.91674    0.58372    0.06876    1.000
    S34      S        0.83341    0.66708    0.99981    1.000
    S35      S        0.83338    0.66700    0.13775    1.000
    Mo36     Mo       0.16673    0.83368    0.06874    1.000
    S37      S        0.08330    0.91694    0.99979    1.000
    S38      S        0.08341    0.91700    0.13773    1.000
    Mo39     Mo       0.41677    0.83371    0.06880    1.000
    S40      S        0.33342    0.91694    0.99979    1.000
    S41      S        0.33337    0.91701    0.13773    1.000
    Mo42     Mo       0.66677    0.83377    0.06879    1.000
    S43      S        0.58345    0.91708    0.99982    1.000
    S44      S        0.58345    0.91709    0.13777    1.000
    Mo45     Mo       0.91671    0.83369    0.06880    1.000
    S46      S        0.83342    0.91708    0.99982    1.000
    S47      S        0.83342    0.91708    0.13777    1.000
    H48      H        0.32493    0.28882    0.30708    1.000
    C49      C        0.41587    0.33314    0.29181    1.000
    H50      H        0.41671    0.33153    0.24450    1.000
    H51      H        0.46040    0.28787    0.30864    1.000
    H52      H        0.46138    0.42430    0.30676    1.000
