# CIF file generated by openbabel 3.1.0, see https://openbabel.org
data_I
_chemical_name_common ''
_cell_length_a 13.105
_cell_length_b 13.105
_cell_length_c 23.0122
_cell_angle_alpha 90
_cell_angle_beta 90
_cell_angle_gamma 120
loop_
    _atom_site_label
    _atom_site_type_symbol
    _atom_site_fract_x
    _atom_site_fract_y
    _atom_site_fract_z
    _atom_site_occupancy
    Mo0      Mo       0.16644    0.08331    0.07069    1.000
    S1       S        0.08314    0.16659    0.00168    1.000
    S2       S        0.08303    0.16659    0.13963    1.000
    Mo3      Mo       0.41642    0.08330    0.07069    1.000
    S4       S        0.33310    0.16663    0.00172    1.000
    S5       S        0.33313    0.16671    0.13968    1.000
    Mo6      Mo       0.66638    0.08327    0.07061    1.000
    S7       S        0.58302    0.16658    0.00168    1.000
    S8       S        0.58312    0.16659    0.13962    1.000
    Mo9      Mo       0.91646    0.08327    0.07061    1.000
    S10      S        0.83309    0.16662    0.00166    1.000
    S11      S        0.83309    0.16662    0.13951    1.000
    Mo12     Mo       0.16631    0.33322    0.07063    1.000
    S13      S        0.08313    0.41667    0.00168    1.000
    S14      S        0.08302    0.41657    0.13963    1.000
    Mo15     Mo       0.41643    0.33327    0.07068    1.000
    S16      S        0.33300    0.41657    0.00174    1.000
    S17      S        0.33279    0.41646    0.13953    1.000
    Mo18     Mo       0.66649    0.33322    0.07063    1.000
    S19      S        0.58314    0.41656    0.00173    1.000
    S20      S        0.58326    0.41645    0.13953    1.000
    Mo21     Mo       0.91645    0.33332    0.07061    1.000
    S22      S        0.83314    0.41667    0.00167    1.000
    S23      S        0.83312    0.41656    0.13963    1.000
    Mo24     Mo       0.16644    0.58326    0.07069    1.000
    S25      S        0.08308    0.66660    0.00175    1.000
    S26      S        0.08308    0.66660    0.13964    1.000
    Mo27     Mo       0.41643    0.58329    0.07068    1.000
    S28      S        0.33310    0.66659    0.00173    1.000
    S29      S        0.33314    0.66656    0.13967    1.000
    Mo30     Mo       0.66642    0.58328    0.07068    1.000
    S31      S        0.58315    0.66673    0.00172    1.000
    S32      S        0.58327    0.66696    0.13952    1.000
    Mo33     Mo       0.91639    0.58326    0.07069    1.000
    S34      S        0.83305    0.66659    0.00173    1.000
    S35      S        0.83298    0.66655    0.13967    1.000
    Mo36     Mo       0.16641    0.83327    0.07069    1.000
    S37      S        0.08308    0.91660    0.00175    1.000
    S38      S        0.08308    0.91660    0.13964    1.000
    Mo39     Mo       0.41642    0.83325    0.07069    1.000
    S40      S        0.33307    0.91660    0.00175    1.000
    S41      S        0.33308    0.91661    0.13964    1.000
    Mo42     Mo       0.66650    0.83343    0.07062    1.000
    S43      S        0.58302    0.91660    0.00167    1.000
    S44      S        0.58313    0.91669    0.13962    1.000
    Mo45     Mo       0.91639    0.83325    0.07069    1.000
    S46      S        0.83315    0.91661    0.00167    1.000
    S47      S        0.83313    0.91670    0.13962    1.000
    H48      H        0.54779    0.59094    0.30850    1.000
    C49      C        0.50042    0.50027    0.29292    1.000
    H50      H        0.49967    0.50004    0.24559    1.000
    H51      H        0.41011    0.45687    0.30901    1.000
    H52      H        0.54422    0.45331    0.30839    1.000
