# CIF file generated by openbabel 3.1.0, see https://openbabel.org
data_I
_chemical_name_common ''
_cell_length_a 13.105
_cell_length_b 13.105
_cell_length_c 23.0122
_cell_angle_alpha 90
_cell_angle_beta 90
_cell_angle_gamma 120
loop_
    _atom_site_label
    _atom_site_type_symbol
    _atom_site_fract_x
    _atom_site_fract_y
    _atom_site_fract_z
    _atom_site_occupancy
    Mo0      Mo       0.16633    0.08339    0.06802    1.000
    S1       S        0.08296    0.16664    0.99902    1.000
    S2       S        0.08310    0.16686    0.13699    1.000
    Mo3      Mo       0.41632    0.08334    0.06800    1.000
    S4       S        0.33295    0.16657    0.99900    1.000
    S5       S        0.33308    0.16681    0.13697    1.000
    Mo6      Mo       0.66633    0.08339    0.06810    1.000
    S7       S        0.58305    0.16662    0.99908    1.000
    S8       S        0.58296    0.16672    0.13701    1.000
    Mo9      Mo       0.91634    0.08342    0.06803    1.000
    S10      S        0.83289    0.16668    0.99910    1.000
    S11      S        0.83303    0.16675    0.13704    1.000
    Mo12     Mo       0.16644    0.33341    0.06788    1.000
    S13      S        0.08298    0.41674    0.99902    1.000
    S14      S        0.08312    0.41666    0.13698    1.000
    Mo15     Mo       0.41637    0.33337    0.06785    1.000
    S16      S        0.33307    0.41672    0.99880    1.000
    S17      S        0.33313    0.41673    0.13658    1.000
    Mo18     Mo       0.66637    0.33335    0.06800    1.000
    S19      S        0.58315    0.41674    0.99899    1.000
    S20      S        0.58293    0.41665    0.13695    1.000
    Mo21     Mo       0.91636    0.33338    0.06802    1.000
    S22      S        0.83307    0.41675    0.99904    1.000
    S23      S        0.83303    0.41674    0.13697    1.000
    Mo24     Mo       0.16636    0.58338    0.06802    1.000
    S25      S        0.08296    0.66671    0.99908    1.000
    S26      S        0.08299    0.66667    0.13701    1.000
    Mo27     Mo       0.41636    0.58338    0.06786    1.000
    S28      S        0.33297    0.66678    0.99900    1.000
    S29      S        0.33309    0.66666    0.13697    1.000
    Mo30     Mo       0.66633    0.58339    0.06800    1.000
    S31      S        0.58313    0.66684    0.99899    1.000
    S32      S        0.58292    0.66671    0.13696    1.000
    Mo33     Mo       0.91634    0.58340    0.06804    1.000
    S34      S        0.83304    0.66675    0.99907    1.000
    S35      S        0.83293    0.66669    0.13700    1.000
    Mo36     Mo       0.16625    0.83334    0.06804    1.000
    S37      S        0.08293    0.91667    0.99908    1.000
    S38      S        0.08297    0.91674    0.13701    1.000
    Mo39     Mo       0.41632    0.83339    0.06801    1.000
    S40      S        0.33288    0.91664    0.99904    1.000
    S41      S        0.33291    0.91667    0.13697    1.000
    Mo42     Mo       0.66634    0.83344    0.06800    1.000
    S43      S        0.58304    0.91687    0.99908    1.000
    S44      S        0.58295    0.91669    0.13702    1.000
    Mo45     Mo       0.91631    0.83338    0.06804    1.000
    S46      S        0.83304    0.91676    0.99905    1.000
    S47      S        0.83300    0.91674    0.13698    1.000
    H48      H        0.29134    0.33680    0.32544    1.000
    C49      C        0.33435    0.41667    0.29921    1.000
    H50      H        0.27004    0.41954    0.27020    1.000
    H51      H        0.40422    0.41680    0.27339    1.000
    H52      H        0.37194    0.49356    0.32758    1.000
