# CIF file generated by openbabel 3.1.0, see https://openbabel.org
data_I
_chemical_name_common ''
_cell_length_a 13.105
_cell_length_b 13.105
_cell_length_c 23.0122
_cell_angle_alpha 90
_cell_angle_beta 90
_cell_angle_gamma 120
loop_
    _atom_site_label
    _atom_site_type_symbol
    _atom_site_fract_x
    _atom_site_fract_y
    _atom_site_fract_z
    _atom_site_occupancy
    Mo0      Mo       0.16648    0.08309    0.06926    1.000
    S1       S        0.08317    0.16639    0.00023    1.000
    S2       S        0.08339    0.16674    0.13818    1.000
    Mo3      Mo       0.41645    0.08309    0.06925    1.000
    S4       S        0.33302    0.16621    0.00022    1.000
    S5       S        0.33321    0.16659    0.13818    1.000
    Mo6      Mo       0.66653    0.08331    0.06927    1.000
    S7       S        0.58307    0.16640    0.00023    1.000
    S8       S        0.58319    0.16675    0.13817    1.000
    Mo9      Mo       0.91663    0.08330    0.06927    1.000
    S10      S        0.83317    0.16649    0.00028    1.000
    S11      S        0.83328    0.16671    0.13820    1.000
    Mo12     Mo       0.16650    0.33319    0.06905    1.000
    S13      S        0.08319    0.41662    0.00016    1.000
    S14      S        0.08321    0.41643    0.13812    1.000
    Mo15     Mo       0.41645    0.33308    0.06905    1.000
    S16      S        0.33322    0.41657    0.00008    1.000
    S17      S        0.33305    0.41643    0.13790    1.000
    Mo18     Mo       0.66652    0.33320    0.06904    1.000
    S19      S        0.58317    0.41657    0.00007    1.000
    S20      S        0.58321    0.41642    0.13788    1.000
    Mo21     Mo       0.91654    0.33324    0.06916    1.000
    S22      S        0.83326    0.41662    0.00016    1.000
    S23      S        0.83304    0.41643    0.13811    1.000
    Mo24     Mo       0.16654    0.58314    0.06924    1.000
    S25      S        0.08320    0.66654    0.00034    1.000
    S26      S        0.08307    0.66629    0.13826    1.000
    Mo27     Mo       0.41662    0.58326    0.06913    1.000
    S28      S        0.33324    0.66662    0.00029    1.000
    S29      S        0.33325    0.66631    0.13823    1.000
    Mo30     Mo       0.66647    0.58326    0.06912    1.000
    S31      S        0.58336    0.66687    0.00019    1.000
    S32      S        0.58329    0.66674    0.13812    1.000
    Mo33     Mo       0.91645    0.58314    0.06924    1.000
    S34      S        0.83322    0.66661    0.00029    1.000
    S35      S        0.83290    0.66630    0.13823    1.000
    Mo36     Mo       0.16646    0.83306    0.06937    1.000
    S37      S        0.08309    0.91628    0.00038    1.000
    S38      S        0.08313    0.91646    0.13830    1.000
    Mo39     Mo       0.41655    0.83316    0.06934    1.000
    S40      S        0.33306    0.91629    0.00038    1.000
    S41      S        0.33320    0.91647    0.13830    1.000
    Mo42     Mo       0.66666    0.83347    0.06921    1.000
    S43      S        0.58316    0.91671    0.00031    1.000
    S44      S        0.58330    0.91670    0.13826    1.000
    Mo45     Mo       0.91646    0.83315    0.06933    1.000
    S46      S        0.83341    0.91671    0.00031    1.000
    S47      S        0.83325    0.91669    0.13826    1.000
    H48      H        0.47628    0.45065    0.33490    1.000
    C49      C        0.47643    0.45452    0.28760    1.000
    H50      H        0.38600    0.41255    0.27169    1.000
    H51      H        0.51975    0.40867    0.26995    1.000
    H52      H        0.52374    0.54630    0.27349    1.000
