# CIF file generated by openbabel 3.1.0, see https://openbabel.org
data_I
_chemical_name_common ''
_cell_length_a 13.105
_cell_length_b 13.105
_cell_length_c 23.0122
_cell_angle_alpha 90
_cell_angle_beta 90
_cell_angle_gamma 120
loop_
    _atom_site_label
    _atom_site_type_symbol
    _atom_site_fract_x
    _atom_site_fract_y
    _atom_site_fract_z
    _atom_site_occupancy
    Mo0      Mo       0.16601    0.08237    0.06861    1.000
    S1       S        0.08262    0.16561    0.99959    1.000
    S2       S        0.08284    0.16588    0.13757    1.000
    Mo3      Mo       0.41593    0.08234    0.06866    1.000
    S4       S        0.33264    0.16561    0.99959    1.000
    S5       S        0.33268    0.16588    0.13757    1.000
    Mo6      Mo       0.66597    0.08228    0.06877    1.000
    S7       S        0.58267    0.16552    0.99974    1.000
    S8       S        0.58255    0.16560    0.13769    1.000
    Mo9      Mo       0.91606    0.08234    0.06865    1.000
    S10      S        0.83249    0.16552    0.99974    1.000
    S11      S        0.83271    0.16559    0.13769    1.000
    Mo12     Mo       0.16602    0.33237    0.06844    1.000
    S13      S        0.08254    0.41573    0.99964    1.000
    S14      S        0.08271    0.41554    0.13762    1.000
    Mo15     Mo       0.41601    0.33237    0.06845    1.000
    S16      S        0.33279    0.41591    0.99943    1.000
    S17      S        0.33254    0.41543    0.13721    1.000
    Mo18     Mo       0.66596    0.33223    0.06868    1.000
    S19      S        0.58284    0.41572    0.99964    1.000
    S20      S        0.58250    0.41554    0.13762    1.000
    Mo21     Mo       0.91593    0.33223    0.06868    1.000
    S22      S        0.83263    0.41560    0.99972    1.000
    S23      S        0.83258    0.41550    0.13768    1.000
    Mo24     Mo       0.16597    0.58230    0.06870    1.000
    S25      S        0.08254    0.66558    0.99977    1.000
    S26      S        0.08263    0.66558    0.13771    1.000
    Mo27     Mo       0.41604    0.58244    0.06860    1.000
    S28      S        0.33265    0.66583    0.99971    1.000
    S29      S        0.33269    0.66575    0.13767    1.000
    Mo30     Mo       0.66599    0.58230    0.06870    1.000
    S31      S        0.58283    0.66583    0.99971    1.000
    S32      S        0.58272    0.66576    0.13766    1.000
    Mo33     Mo       0.91593    0.58221    0.06875    1.000
    S34      S        0.83270    0.66558    0.99977    1.000
    S35      S        0.83260    0.66558    0.13771    1.000
    Mo36     Mo       0.16590    0.83228    0.06871    1.000
    S37      S        0.08260    0.91554    0.99971    1.000
    S38      S        0.08270    0.91575    0.13766    1.000
    Mo39     Mo       0.41598    0.83242    0.06870    1.000
    S40      S        0.33254    0.91565    0.99971    1.000
    S41      S        0.33255    0.91573    0.13765    1.000
    Mo42     Mo       0.66610    0.83243    0.06869    1.000
    S43      S        0.58271    0.91577    0.99977    1.000
    S44      S        0.58265    0.91563    0.13772    1.000
    Mo45     Mo       0.91602    0.83228    0.06871    1.000
    S46      S        0.83276    0.91565    0.99970    1.000
    S47      S        0.83283    0.91573    0.13764    1.000
    H48      H        0.31601    0.51879    0.31792    1.000
    C49      C        0.37636    0.50160    0.29283    1.000
    H50      H        0.40661    0.55898    0.25483    1.000
    H51      H        0.33111    0.40991    0.27872    1.000
    H52      H        0.45178    0.51882    0.31972    1.000
