# CIF file generated by openbabel 3.1.0, see https://openbabel.org
data_I
_chemical_name_common ''
_cell_length_a 13.105
_cell_length_b 13.105
_cell_length_c 23.0122
_cell_angle_alpha 90
_cell_angle_beta 90
_cell_angle_gamma 120
loop_
    _atom_site_label
    _atom_site_type_symbol
    _atom_site_fract_x
    _atom_site_fract_y
    _atom_site_fract_z
    _atom_site_occupancy
    Mo0      Mo       0.16712    0.08465    0.06921    1.000
    S1       S        0.08373    0.16783    0.00015    1.000
    S2       S        0.08369    0.16799    0.13810    1.000
    Mo3      Mo       0.41724    0.08465    0.06921    1.000
    S4       S        0.33377    0.16784    0.00025    1.000
    S5       S        0.33387    0.16803    0.13819    1.000
    Mo6      Mo       0.66722    0.08461    0.06911    1.000
    S7       S        0.58381    0.16783    0.00014    1.000
    S8       S        0.58401    0.16799    0.13810    1.000
    Mo9      Mo       0.91710    0.08461    0.06911    1.000
    S10      S        0.83389    0.16806    0.00013    1.000
    S11      S        0.83387    0.16804    0.13808    1.000
    Mo12     Mo       0.16699    0.33457    0.06904    1.000
    S13      S        0.08382    0.41814    0.00014    1.000
    S14      S        0.08386    0.41803    0.13809    1.000
    Mo15     Mo       0.41714    0.33457    0.06913    1.000
    S16      S        0.33370    0.41781    0.00010    1.000
    S17      S        0.33345    0.41775    0.13800    1.000
    Mo18     Mo       0.66728    0.33456    0.06904    1.000
    S19      S        0.58381    0.41781    0.00010    1.000
    S20      S        0.58400    0.41774    0.13799    1.000
    Mo21     Mo       0.91723    0.33475    0.06912    1.000
    S22      S        0.83402    0.41814    0.00014    1.000
    S23      S        0.83388    0.41803    0.13809    1.000
    Mo24     Mo       0.16723    0.58475    0.06916    1.000
    S25      S        0.08397    0.66821    0.00022    1.000
    S26      S        0.08390    0.66808    0.13816    1.000
    Mo27     Mo       0.41708    0.58450    0.06908    1.000
    S28      S        0.33385    0.66800    0.00019    1.000
    S29      S        0.33393    0.66789    0.13814    1.000
    Mo30     Mo       0.66713    0.58450    0.06908    1.000
    S31      S        0.58375    0.66780    0.00007    1.000
    S32      S        0.58387    0.66802    0.13794    1.000
    Mo33     Mo       0.91724    0.58475    0.06916    1.000
    S34      S        0.83386    0.66800    0.00019    1.000
    S35      S        0.83367    0.66788    0.13814    1.000
    Mo36     Mo       0.16724    0.83477    0.06923    1.000
    S37      S        0.08386    0.91802    0.00025    1.000
    S38      S        0.08375    0.91801    0.13819    1.000
    Mo39     Mo       0.41723    0.83463    0.06918    1.000
    S40      S        0.33387    0.91801    0.00025    1.000
    S41      S        0.33397    0.91801    0.13819    1.000
    Mo42     Mo       0.66716    0.83460    0.06902    1.000
    S43      S        0.58380    0.91793    0.00013    1.000
    S44      S        0.58395    0.91791    0.13808    1.000
    Mo45     Mo       0.91711    0.83462    0.06918    1.000
    S46      S        0.83385    0.91794    0.00013    1.000
    S47      S        0.83367    0.91791    0.13808    1.000
    H48      H        0.42559    0.48891    0.31484    1.000
    C49      C        0.49429    0.48849    0.28831    1.000
    H50      H        0.53588    0.56769    0.26149    1.000
    H51      H        0.45555    0.41099    0.26031    1.000
    H52      H        0.56026    0.48657    0.31642    1.000
