# CIF file generated by openbabel 3.1.0, see https://openbabel.org
data_I
_chemical_name_common ''
_cell_length_a 13.105
_cell_length_b 13.105
_cell_length_c 23.0122
_cell_angle_alpha 90
_cell_angle_beta 90
_cell_angle_gamma 120
loop_
    _atom_site_label
    _atom_site_type_symbol
    _atom_site_fract_x
    _atom_site_fract_y
    _atom_site_fract_z
    _atom_site_occupancy
    Mo0      Mo       0.16684    0.08338    0.06851    1.000
    S1       S        0.08352    0.16663    0.99947    1.000
    S2       S        0.08357    0.16685    0.13740    1.000
    Mo3      Mo       0.41678    0.08339    0.06851    1.000
    S4       S        0.33343    0.16665    0.99955    1.000
    S5       S        0.33353    0.16683    0.13750    1.000
    Mo6      Mo       0.66689    0.08354    0.06845    1.000
    S7       S        0.58334    0.16663    0.99947    1.000
    S8       S        0.58351    0.16687    0.13739    1.000
    Mo9      Mo       0.91688    0.08353    0.06845    1.000
    S10      S        0.83355    0.16687    0.99948    1.000
    S11      S        0.83358    0.16693    0.13739    1.000
    Mo12     Mo       0.16685    0.33340    0.06833    1.000
    S13      S        0.08353    0.41681    0.99945    1.000
    S14      S        0.08358    0.41674    0.13735    1.000
    Mo15     Mo       0.41680    0.33342    0.06842    1.000
    S16      S        0.33359    0.41678    0.99939    1.000
    S17      S        0.33337    0.41678    0.13723    1.000
    Mo18     Mo       0.66677    0.33341    0.06831    1.000
    S19      S        0.58336    0.41678    0.99938    1.000
    S20      S        0.58363    0.41679    0.13719    1.000
    Mo21     Mo       0.91686    0.33351    0.06841    1.000
    S22      S        0.83350    0.41682    0.99944    1.000
    S23      S        0.83336    0.41674    0.13734    1.000
    Mo24     Mo       0.16688    0.58343    0.06843    1.000
    S25      S        0.08347    0.66671    0.99950    1.000
    S26      S        0.08342    0.66660    0.13740    1.000
    Mo27     Mo       0.41687    0.58348    0.06839    1.000
    S28      S        0.33357    0.66686    0.99947    1.000
    S29      S        0.33356    0.66676    0.13739    1.000
    Mo30     Mo       0.66682    0.58348    0.06837    1.000
    S31      S        0.58357    0.66694    0.99948    1.000
    S32      S        0.58346    0.66668    0.13744    1.000
    Mo33     Mo       0.91678    0.58343    0.06843    1.000
    S34      S        0.83352    0.66685    0.99947    1.000
    S35      S        0.83341    0.66674    0.13739    1.000
    Mo36     Mo       0.16679    0.83331    0.06849    1.000
    S37      S        0.08352    0.91671    0.99955    1.000
    S38      S        0.08346    0.91666    0.13744    1.000
    Mo39     Mo       0.41689    0.83347    0.06847    1.000
    S40      S        0.33346    0.91672    0.99955    1.000
    S41      S        0.33346    0.91667    0.13744    1.000
    Mo42     Mo       0.66687    0.83348    0.06850    1.000
    S43      S        0.58359    0.91685    0.99954    1.000
    S44      S        0.58359    0.91690    0.13742    1.000
    Mo45     Mo       0.91682    0.83345    0.06847    1.000
    S46      S        0.83351    0.91682    0.99954    1.000
    S47      S        0.83357    0.91688    0.13742    1.000
    H48      H        0.41685    0.33333    0.32188    1.000
    C49      C        0.45614    0.41238    0.29498    1.000
    H50      H        0.38754    0.41536    0.26948    1.000
    H51      H        0.52080    0.41068    0.26577    1.000
    H52      H        0.49941    0.49018    0.32264    1.000
