# CIF file generated by openbabel 3.1.0, see https://openbabel.org
data_I
_chemical_name_common ''
_cell_length_a 13.105
_cell_length_b 13.105
_cell_length_c 23.0122
_cell_angle_alpha 90
_cell_angle_beta 90
_cell_angle_gamma 120
loop_
    _atom_site_label
    _atom_site_type_symbol
    _atom_site_fract_x
    _atom_site_fract_y
    _atom_site_fract_z
    _atom_site_occupancy
    Mo0      Mo       0.16657    0.08356    0.06798    1.000
    S1       S        0.08310    0.16674    0.99898    1.000
    S2       S        0.08323    0.16694    0.13694    1.000
    Mo3      Mo       0.41662    0.08353    0.06799    1.000
    S4       S        0.33324    0.16674    0.99898    1.000
    S5       S        0.33330    0.16694    0.13694    1.000
    Mo6      Mo       0.66658    0.08356    0.06810    1.000
    S7       S        0.58336    0.16685    0.99908    1.000
    S8       S        0.58325    0.16693    0.13701    1.000
    Mo9      Mo       0.91650    0.08353    0.06799    1.000
    S10      S        0.83309    0.16685    0.99907    1.000
    S11      S        0.83327    0.16693    0.13701    1.000
    Mo12     Mo       0.16654    0.33351    0.06784    1.000
    S13      S        0.08315    0.41693    0.99900    1.000
    S14      S        0.08328    0.41680    0.13697    1.000
    Mo15     Mo       0.41656    0.33351    0.06785    1.000
    S16      S        0.33320    0.41681    0.99880    1.000
    S17      S        0.33315    0.41674    0.13658    1.000
    Mo18     Mo       0.66660    0.33358    0.06801    1.000
    S19      S        0.58336    0.41693    0.99900    1.000
    S20      S        0.58311    0.41680    0.13697    1.000
    Mo21     Mo       0.91656    0.33358    0.06800    1.000
    S22      S        0.83330    0.41701    0.99904    1.000
    S23      S        0.83329    0.41698    0.13697    1.000
    Mo24     Mo       0.16658    0.58354    0.06802    1.000
    S25      S        0.08326    0.66694    0.99908    1.000
    S26      S        0.08330    0.66692    0.13701    1.000
    Mo27     Mo       0.41651    0.58343    0.06788    1.000
    S28      S        0.33321    0.66691    0.99902    1.000
    S29      S        0.33329    0.66677    0.13699    1.000
    Mo30     Mo       0.66655    0.58354    0.06803    1.000
    S31      S        0.58329    0.66690    0.99902    1.000
    S32      S        0.58307    0.66676    0.13699    1.000
    Mo33     Mo       0.91662    0.58364    0.06804    1.000
    S34      S        0.83327    0.66694    0.99908    1.000
    S35      S        0.83322    0.66692    0.13701    1.000
    Mo36     Mo       0.16659    0.83357    0.06803    1.000
    S37      S        0.08322    0.91684    0.99906    1.000
    S38      S        0.08328    0.91697    0.13699    1.000
    Mo39     Mo       0.41660    0.83353    0.06802    1.000
    S40      S        0.33324    0.91683    0.99904    1.000
    S41      S        0.33325    0.91687    0.13697    1.000
    Mo42     Mo       0.66653    0.83353    0.06802    1.000
    S43      S        0.58330    0.91699    0.99910    1.000
    S44      S        0.58323    0.91685    0.13703    1.000
    Mo45     Mo       0.91658    0.83356    0.06803    1.000
    S46      S        0.83318    0.91682    0.99904    1.000
    S47      S        0.83322    0.91687    0.13697    1.000
    H48      H        0.26427    0.41756    0.32552    1.000
    C49      C        0.33223    0.41519    0.29924    1.000
    H50      H        0.37226    0.49162    0.27055    1.000
    H51      H        0.29284    0.33504    0.27309    1.000
    H52      H        0.39946    0.41638    0.32757    1.000
