# CIF file generated by openbabel 3.1.0, see https://openbabel.org
data_I
_chemical_name_common ''
_cell_length_a 13.105
_cell_length_b 13.105
_cell_length_c 23.0122
_cell_angle_alpha 90
_cell_angle_beta 90
_cell_angle_gamma 120
loop_
    _atom_site_label
    _atom_site_type_symbol
    _atom_site_fract_x
    _atom_site_fract_y
    _atom_site_fract_z
    _atom_site_occupancy
    Mo0      Mo       0.16632    0.08322    0.06887    1.000
    S1       S        0.08306    0.16661    0.99987    1.000
    S2       S        0.08327    0.16687    0.13782    1.000
    Mo3      Mo       0.41632    0.08322    0.06887    1.000
    S4       S        0.33290    0.16637    0.99986    1.000
    S5       S        0.33301    0.16660    0.13781    1.000
    Mo6      Mo       0.66641    0.08349    0.06890    1.000
    S7       S        0.58298    0.16661    0.99988    1.000
    S8       S        0.58303    0.16687    0.13782    1.000
    Mo9      Mo       0.91650    0.08350    0.06890    1.000
    S10      S        0.83306    0.16670    0.99992    1.000
    S11      S        0.83315    0.16689    0.13785    1.000
    Mo12     Mo       0.16643    0.33339    0.06872    1.000
    S13      S        0.08307    0.41674    0.99980    1.000
    S14      S        0.08313    0.41666    0.13776    1.000
    Mo15     Mo       0.41634    0.33324    0.06875    1.000
    S16      S        0.33313    0.41671    0.99974    1.000
    S17      S        0.33302    0.41670    0.13759    1.000
    Mo18     Mo       0.66639    0.33339    0.06873    1.000
    S19      S        0.58302    0.41671    0.99975    1.000
    S20      S        0.58311    0.41671    0.13760    1.000
    Mo21     Mo       0.91643    0.33343    0.06881    1.000
    S22      S        0.83310    0.41674    0.99981    1.000
    S23      S        0.83297    0.41667    0.13776    1.000
    Mo24     Mo       0.16642    0.58331    0.06883    1.000
    S25      S        0.08304    0.66666    0.99990    1.000
    S26      S        0.08295    0.66648    0.13783    1.000
    Mo27     Mo       0.41650    0.58342    0.06875    1.000
    S28      S        0.33313    0.66677    0.99988    1.000
    S29      S        0.33311    0.66650    0.13782    1.000
    Mo30     Mo       0.66635    0.58342    0.06875    1.000
    S31      S        0.58323    0.66703    0.99981    1.000
    S32      S        0.58314    0.66685    0.13776    1.000
    Mo33     Mo       0.91632    0.58332    0.06884    1.000
    S34      S        0.83307    0.66678    0.99988    1.000
    S35      S        0.83282    0.66652    0.13783    1.000
    Mo36     Mo       0.16631    0.83320    0.06892    1.000
    S37      S        0.08292    0.91646    0.99996    1.000
    S38      S        0.08297    0.91657    0.13788    1.000
    Mo39     Mo       0.41642    0.83332    0.06893    1.000
    S40      S        0.33296    0.91646    0.99996    1.000
    S41      S        0.33301    0.91656    0.13789    1.000
    Mo42     Mo       0.66652    0.83362    0.06885    1.000
    S43      S        0.58307    0.91691    0.99993    1.000
    S44      S        0.58314    0.91686    0.13787    1.000
    Mo45     Mo       0.91632    0.83333    0.06892    1.000
    S46      S        0.83325    0.91691    0.99993    1.000
    S47      S        0.83313    0.91686    0.13787    1.000
    H48      H        0.44233    0.38489    0.33501    1.000
    C49      C        0.44415    0.38261    0.28770    1.000
    H50      H        0.53524    0.42736    0.27265    1.000
    H51      H        0.39934    0.42688    0.26994    1.000
    H52      H        0.39959    0.29131    0.27289    1.000
