# CIF file generated by openbabel 3.1.0, see https://openbabel.org
data_I
_chemical_name_common ''
_cell_length_a 13.105
_cell_length_b 13.105
_cell_length_c 23.0122
_cell_angle_alpha 90
_cell_angle_beta 90
_cell_angle_gamma 120
loop_
    _atom_site_label
    _atom_site_type_symbol
    _atom_site_fract_x
    _atom_site_fract_y
    _atom_site_fract_z
    _atom_site_occupancy
    Mo0      Mo       0.16580    0.08193    0.06913    1.000
    S1       S        0.08255    0.16532    0.00017    1.000
    S2       S        0.08272    0.16544    0.13812    1.000
    Mo3      Mo       0.41569    0.08196    0.06920    1.000
    S4       S        0.33244    0.16532    0.00017    1.000
    S5       S        0.33239    0.16544    0.13812    1.000
    Mo6      Mo       0.66581    0.08195    0.06923    1.000
    S7       S        0.58238    0.16514    0.00023    1.000
    S8       S        0.58236    0.16524    0.13818    1.000
    Mo9      Mo       0.91595    0.08196    0.06920    1.000
    S10      S        0.83243    0.16513    0.00023    1.000
    S11      S        0.83255    0.16524    0.13818    1.000
    Mo12     Mo       0.16580    0.33197    0.06907    1.000
    S13      S        0.08245    0.41522    0.00015    1.000
    S14      S        0.08254    0.41528    0.13809    1.000
    Mo15     Mo       0.41584    0.33197    0.06907    1.000
    S16      S        0.33259    0.41551    0.00012    1.000
    S17      S        0.33255    0.41543    0.13794    1.000
    Mo18     Mo       0.66572    0.33182    0.06916    1.000
    S19      S        0.58244    0.41522    0.00015    1.000
    S20      S        0.58240    0.41528    0.13809    1.000
    Mo21     Mo       0.91577    0.33181    0.06916    1.000
    S22      S        0.83235    0.41504    0.00017    1.000
    S23      S        0.83234    0.41502    0.13814    1.000
    Mo24     Mo       0.16573    0.58190    0.06909    1.000
    S25      S        0.08230    0.66512    0.00018    1.000
    S26      S        0.08240    0.66508    0.13813    1.000
    Mo27     Mo       0.41597    0.58226    0.06909    1.000
    S28      S        0.33248    0.66553    0.00013    1.000
    S29      S        0.33239    0.66548    0.13803    1.000
    Mo30     Mo       0.66585    0.58191    0.06909    1.000
    S31      S        0.58273    0.66553    0.00013    1.000
    S32      S        0.58277    0.66548    0.13802    1.000
    Mo33     Mo       0.91569    0.58171    0.06918    1.000
    S34      S        0.83251    0.66512    0.00018    1.000
    S35      S        0.83237    0.66508    0.13813    1.000
    Mo36     Mo       0.16570    0.83182    0.06916    1.000
    S37      S        0.08241    0.91513    0.00017    1.000
    S38      S        0.08244    0.91519    0.13812    1.000
    Mo39     Mo       0.41579    0.83214    0.06913    1.000
    S40      S        0.33235    0.91538    0.00019    1.000
    S41      S        0.33232    0.91527    0.13815    1.000
    Mo42     Mo       0.66602    0.83214    0.06913    1.000
    S43      S        0.58256    0.91544    0.00022    1.000
    S44      S        0.58247    0.91526    0.13816    1.000
    Mo45     Mo       0.91580    0.83182    0.06916    1.000
    S46      S        0.83270    0.91538    0.00019    1.000
    S47      S        0.83263    0.91527    0.13815    1.000
    H48      H        0.35209    0.59347    0.31479    1.000
    C49      C        0.42262    0.59696    0.28819    1.000
    H50      H        0.46526    0.67934    0.26381    1.000
    H51      H        0.38578    0.52301    0.25792    1.000
    H52      H        0.48714    0.59176    0.31605    1.000
