# CIF file generated by openbabel 3.1.0, see https://openbabel.org
data_I
_chemical_name_common ''
_cell_length_a 13.105
_cell_length_b 13.105
_cell_length_c 23.0122
_cell_angle_alpha 90
_cell_angle_beta 90
_cell_angle_gamma 120
loop_
    _atom_site_label
    _atom_site_type_symbol
    _atom_site_fract_x
    _atom_site_fract_y
    _atom_site_fract_z
    _atom_site_occupancy
    Mo0      Mo       0.16711    0.08273    0.06862    1.000
    S1       S        0.08369    0.16598    0.99968    1.000
    S2       S        0.08391    0.16621    0.13761    1.000
    Mo3      Mo       0.41714    0.08279    0.06858    1.000
    S4       S        0.33365    0.16591    0.99956    1.000
    S5       S        0.33387    0.16628    0.13749    1.000
    Mo6      Mo       0.66712    0.08272    0.06862    1.000
    S7       S        0.58379    0.16606    0.99964    1.000
    S8       S        0.58375    0.16609    0.13754    1.000
    Mo9      Mo       0.91714    0.08272    0.06869    1.000
    S10      S        0.83381    0.16599    0.99970    1.000
    S11      S        0.83374    0.16603    0.13761    1.000
    Mo12     Mo       0.16713    0.33276    0.06853    1.000
    S13      S        0.08369    0.41611    0.99967    1.000
    S14      S        0.08375    0.41601    0.13758    1.000
    Mo15     Mo       0.41710    0.33275    0.06834    1.000
    S16      S        0.33368    0.41618    0.99943    1.000
    S17      S        0.33396    0.41587    0.13715    1.000
    Mo18     Mo       0.66705    0.33271    0.06859    1.000
    S19      S        0.58395    0.41620    0.99956    1.000
    S20      S        0.58357    0.41598    0.13749    1.000
    Mo21     Mo       0.91707    0.33266    0.06863    1.000
    S22      S        0.83378    0.41604    0.99970    1.000
    S23      S        0.83367    0.41596    0.13757    1.000
    Mo24     Mo       0.16710    0.58275    0.06865    1.000
    S25      S        0.08377    0.66606    0.99971    1.000
    S26      S        0.08378    0.66606    0.13762    1.000
    Mo27     Mo       0.41709    0.58272    0.06854    1.000
    S28      S        0.33374    0.66615    0.99966    1.000
    S29      S        0.33384    0.66612    0.13758    1.000
    Mo30     Mo       0.66712    0.58274    0.06863    1.000
    S31      S        0.58387    0.66616    0.99969    1.000
    S32      S        0.58364    0.66594    0.13762    1.000
    Mo33     Mo       0.91711    0.58270    0.06866    1.000
    S34      S        0.83382    0.66607    0.99972    1.000
    S35      S        0.83374    0.66596    0.13762    1.000
    Mo36     Mo       0.16714    0.83273    0.06866    1.000
    S37      S        0.08378    0.91602    0.99971    1.000
    S38      S        0.08389    0.91611    0.13762    1.000
    Mo39     Mo       0.41718    0.83278    0.06863    1.000
    S40      S        0.33380    0.91607    0.99969    1.000
    S41      S        0.33388    0.91617    0.13757    1.000
    Mo42     Mo       0.66713    0.83271    0.06869    1.000
    S43      S        0.58386    0.91604    0.99970    1.000
    S44      S        0.58381    0.91611    0.13761    1.000
    Mo45     Mo       0.91717    0.83268    0.06870    1.000
    S46      S        0.83384    0.91601    0.99978    1.000
    S47      S        0.83383    0.91602    0.13765    1.000
    H48      H        0.21287    0.40182    0.31811    1.000
    C49      C        0.29060    0.46277    0.29329    1.000
    H50      H        0.26348    0.49249    0.25510    1.000
    H51      H        0.33802    0.41826    0.27954    1.000
    H52      H        0.34790    0.53848    0.32023    1.000
