# CIF file generated by openbabel 3.1.0, see https://openbabel.org
data_I
_chemical_name_common ''
_cell_length_a 13.105
_cell_length_b 13.105
_cell_length_c 23.0122
_cell_angle_alpha 90
_cell_angle_beta 90
_cell_angle_gamma 120
loop_
    _atom_site_label
    _atom_site_type_symbol
    _atom_site_fract_x
    _atom_site_fract_y
    _atom_site_fract_z
    _atom_site_occupancy
    Mo0      Mo       0.16639    0.08321    0.06957    1.000
    S1       S        0.08311    0.16660    0.00063    1.000
    S2       S        0.08314    0.16662    0.13856    1.000
    Mo3      Mo       0.41646    0.08321    0.06956    1.000
    S4       S        0.33308    0.16652    0.00062    1.000
    S5       S        0.33305    0.16645    0.13844    1.000
    Mo6      Mo       0.66645    0.08326    0.06959    1.000
    S7       S        0.58312    0.16660    0.00062    1.000
    S8       S        0.58311    0.16662    0.13856    1.000
    Mo9      Mo       0.91644    0.08326    0.06959    1.000
    S10      S        0.83312    0.16660    0.00063    1.000
    S11      S        0.83310    0.16657    0.13855    1.000
    Mo12     Mo       0.16637    0.33326    0.06956    1.000
    S13      S        0.08304    0.41657    0.00062    1.000
    S14      S        0.08313    0.41663    0.13856    1.000
    Mo15     Mo       0.41646    0.33329    0.06957    1.000
    S16      S        0.33306    0.41666    0.00062    1.000
    S17      S        0.33302    0.41669    0.13844    1.000
    Mo18     Mo       0.66652    0.33327    0.06956    1.000
    S19      S        0.58322    0.41667    0.00061    1.000
    S20      S        0.58330    0.41671    0.13843    1.000
    Mo21     Mo       0.91644    0.33326    0.06961    1.000
    S22      S        0.83314    0.41658    0.00061    1.000
    S23      S        0.83311    0.41664    0.13856    1.000
    Mo24     Mo       0.16644    0.58326    0.06956    1.000
    S25      S        0.08311    0.66661    0.00059    1.000
    S26      S        0.08311    0.66660    0.13848    1.000
    Mo27     Mo       0.41644    0.58334    0.06956    1.000
    S28      S        0.33313    0.66666    0.00062    1.000
    S29      S        0.33306    0.66657    0.13856    1.000
    Mo30     Mo       0.66652    0.58335    0.06956    1.000
    S31      S        0.58311    0.66661    0.00062    1.000
    S32      S        0.58309    0.66656    0.13856    1.000
    Mo33     Mo       0.91643    0.58327    0.06956    1.000
    S34      S        0.83316    0.66668    0.00061    1.000
    S35      S        0.83313    0.66659    0.13856    1.000
    Mo36     Mo       0.16646    0.83329    0.06956    1.000
    S37      S        0.08307    0.91659    0.00062    1.000
    S38      S        0.08315    0.91661    0.13856    1.000
    Mo39     Mo       0.41644    0.83327    0.06961    1.000
    S40      S        0.33314    0.91658    0.00062    1.000
    S41      S        0.33308    0.91660    0.13856    1.000
    Mo42     Mo       0.66644    0.83327    0.06959    1.000
    S43      S        0.58311    0.91659    0.00063    1.000
    S44      S        0.58314    0.91661    0.13855    1.000
    Mo45     Mo       0.91646    0.83328    0.06961    1.000
    S46      S        0.83311    0.91659    0.00063    1.000
    S47      S        0.83310    0.91661    0.13855    1.000
    H48      H        0.32570    0.28852    0.26827    1.000
    C49      C        0.41650    0.33296    0.28378    1.000
    H50      H        0.46227    0.42360    0.26805    1.000
    H51      H        0.46078    0.28703    0.26746    1.000
    H52      H        0.41724    0.33269    0.33113    1.000
