# CIF file generated by openbabel 3.1.0, see https://openbabel.org
data_I
_chemical_name_common ''
_cell_length_a 13.105
_cell_length_b 13.105
_cell_length_c 23.0122
_cell_angle_alpha 90
_cell_angle_beta 90
_cell_angle_gamma 120
loop_
    _atom_site_label
    _atom_site_type_symbol
    _atom_site_fract_x
    _atom_site_fract_y
    _atom_site_fract_z
    _atom_site_occupancy
    Mo0      Mo       0.16663    0.08342    0.06917    1.000
    S1       S        0.08337    0.16682    0.00025    1.000
    S2       S        0.08349    0.16687    0.13819    1.000
    Mo3      Mo       0.41672    0.08343    0.06917    1.000
    S4       S        0.33331    0.16670    0.00020    1.000
    S5       S        0.33331    0.16669    0.13803    1.000
    Mo6      Mo       0.66671    0.08351    0.06923    1.000
    S7       S        0.58339    0.16684    0.00024    1.000
    S8       S        0.58332    0.16687    0.13819    1.000
    Mo9      Mo       0.91673    0.08351    0.06924    1.000
    S10      S        0.83339    0.16683    0.00028    1.000
    S11      S        0.83338    0.16683    0.13820    1.000
    Mo12     Mo       0.16663    0.33347    0.06917    1.000
    S13      S        0.08331    0.41681    0.00024    1.000
    S14      S        0.08342    0.41684    0.13819    1.000
    Mo15     Mo       0.41667    0.33346    0.06914    1.000
    S16      S        0.33331    0.41685    0.00021    1.000
    S17      S        0.33330    0.41685    0.13803    1.000
    Mo18     Mo       0.66674    0.33347    0.06917    1.000
    S19      S        0.58343    0.41686    0.00021    1.000
    S20      S        0.58343    0.41686    0.13803    1.000
    Mo21     Mo       0.91670    0.33351    0.06924    1.000
    S22      S        0.83337    0.41680    0.00025    1.000
    S23      S        0.83331    0.41684    0.13819    1.000
    Mo24     Mo       0.16672    0.58347    0.06920    1.000
    S25      S        0.08337    0.66682    0.00025    1.000
    S26      S        0.08336    0.66681    0.13813    1.000
    Mo27     Mo       0.41672    0.58354    0.06917    1.000
    S28      S        0.33340    0.66687    0.00025    1.000
    S29      S        0.33337    0.66675    0.13819    1.000
    Mo30     Mo       0.66673    0.58355    0.06917    1.000
    S31      S        0.58337    0.66683    0.00024    1.000
    S32      S        0.58333    0.66675    0.13818    1.000
    Mo33     Mo       0.91666    0.58347    0.06920    1.000
    S34      S        0.83337    0.66686    0.00025    1.000
    S35      S        0.83330    0.66674    0.13819    1.000
    Mo36     Mo       0.16672    0.83351    0.06921    1.000
    S37      S        0.08330    0.91676    0.00025    1.000
    S38      S        0.08342    0.91685    0.13819    1.000
    Mo39     Mo       0.41671    0.83348    0.06925    1.000
    S40      S        0.33340    0.91677    0.00025    1.000
    S41      S        0.33337    0.91686    0.13819    1.000
    Mo42     Mo       0.66671    0.83349    0.06923    1.000
    S43      S        0.58338    0.91684    0.00028    1.000
    S44      S        0.58341    0.91684    0.13820    1.000
    Mo45     Mo       0.91669    0.83347    0.06925    1.000
    S46      S        0.83339    0.91684    0.00028    1.000
    S47      S        0.83337    0.91683    0.13820    1.000
    H48      H        0.37633    0.24487    0.27174    1.000
    C49      C        0.41777    0.33529    0.28764    1.000
    H50      H        0.36853    0.37662    0.27196    1.000
    H51      H        0.50804    0.38442    0.27154    1.000
    H52      H        0.41825    0.33534    0.33500    1.000
