# CIF file generated by openbabel 3.1.0, see https://openbabel.org
data_I
_chemical_name_common ''
_cell_length_a 13.105
_cell_length_b 13.105
_cell_length_c 23.0122
_cell_angle_alpha 90
_cell_angle_beta 90
_cell_angle_gamma 120
loop_
    _atom_site_label
    _atom_site_type_symbol
    _atom_site_fract_x
    _atom_site_fract_y
    _atom_site_fract_z
    _atom_site_occupancy
    Mo0      Mo       0.16657    0.08352    0.06965    1.000
    S1       S        0.08322    0.16676    0.00063    1.000
    S2       S        0.08319    0.16683    0.13858    1.000
    Mo3      Mo       0.41657    0.08352    0.06964    1.000
    S4       S        0.33322    0.16681    0.00067    1.000
    S5       S        0.33329    0.16694    0.13862    1.000
    Mo6      Mo       0.66650    0.08346    0.06959    1.000
    S7       S        0.58316    0.16676    0.00062    1.000
    S8       S        0.58327    0.16684    0.13858    1.000
    Mo9      Mo       0.91657    0.08346    0.06959    1.000
    S10      S        0.83322    0.16682    0.00063    1.000
    S11      S        0.83322    0.16682    0.13850    1.000
    Mo12     Mo       0.16640    0.33341    0.06955    1.000
    S13      S        0.08323    0.41689    0.00063    1.000
    S14      S        0.08319    0.41678    0.13858    1.000
    Mo15     Mo       0.41655    0.33348    0.06959    1.000
    S16      S        0.33314    0.41678    0.00063    1.000
    S17      S        0.33295    0.41667    0.13845    1.000
    Mo18     Mo       0.66663    0.33341    0.06955    1.000
    S19      S        0.58326    0.41678    0.00063    1.000
    S20      S        0.58336    0.41668    0.13845    1.000
    Mo21     Mo       0.91658    0.33354    0.06959    1.000
    S22      S        0.83329    0.41689    0.00062    1.000
    S23      S        0.83321    0.41678    0.13858    1.000
    Mo24     Mo       0.16657    0.58348    0.06965    1.000
    S25      S        0.08324    0.66686    0.00071    1.000
    S26      S        0.08320    0.66678    0.13861    1.000
    Mo27     Mo       0.41655    0.58348    0.06960    1.000
    S28      S        0.33322    0.66682    0.00067    1.000
    S29      S        0.33328    0.66675    0.13862    1.000
    Mo30     Mo       0.66656    0.58348    0.06959    1.000
    S31      S        0.58326    0.66689    0.00063    1.000
    S32      S        0.58335    0.66708    0.13846    1.000
    Mo33     Mo       0.91652    0.58348    0.06964    1.000
    S34      S        0.83322    0.66682    0.00067    1.000
    S35      S        0.83309    0.66675    0.13862    1.000
    Mo36     Mo       0.16655    0.83349    0.06968    1.000
    S37      S        0.08323    0.91680    0.00071    1.000
    S38      S        0.08319    0.91684    0.13861    1.000
    Mo39     Mo       0.41657    0.83347    0.06965    1.000
    S40      S        0.33319    0.91680    0.00071    1.000
    S41      S        0.33327    0.91684    0.13861    1.000
    Mo42     Mo       0.66662    0.83363    0.06955    1.000
    S43      S        0.58316    0.91681    0.00063    1.000
    S44      S        0.58326    0.91685    0.13858    1.000
    Mo45     Mo       0.91651    0.83346    0.06965    1.000
    S46      S        0.83327    0.91681    0.00063    1.000
    S47      S        0.83320    0.91685    0.13858    1.000
    H48      H        0.45496    0.54576    0.26794    1.000
    C49      C        0.50008    0.50008    0.28348    1.000
    H50      H        0.59073    0.54563    0.26774    1.000
    H51      H        0.45483    0.40987    0.26714    1.000
    H52      H        0.49981    0.49908    0.33083    1.000
