# CIF file generated by openbabel 3.1.0, see https://openbabel.org
data_I
_chemical_name_common ''
_cell_length_a 13.105
_cell_length_b 13.105
_cell_length_c 23.0122
_cell_angle_alpha 90
_cell_angle_beta 90
_cell_angle_gamma 120
loop_
    _atom_site_label
    _atom_site_type_symbol
    _atom_site_fract_x
    _atom_site_fract_y
    _atom_site_fract_z
    _atom_site_occupancy
    H0       H        0.42889    0.40128    0.49293    1.000
    C1       C        0.52488    0.44927    0.49293    1.000
    H2       H        0.55684    0.54363    0.49293    1.000
    H3       H        0.55685    0.42606    0.45428    1.000
    H4       H        0.55684    0.42608    0.53158    1.000
