# CIF file generated by openbabel 3.1.0, see https://openbabel.org
data_I
_chemical_name_common ''
_cell_length_a 13.105
_cell_length_b 13.105
_cell_length_c 23.0122
_cell_angle_alpha 90
_cell_angle_beta 90
_cell_angle_gamma 120
loop_
    _atom_site_label
    _atom_site_type_symbol
    _atom_site_fract_x
    _atom_site_fract_y
    _atom_site_fract_z
    _atom_site_occupancy
    Mo0      Mo       0.17159    0.09299    0.06090    1.000
    S1       S        0.08815    0.17623    0.99196    1.000
    S2       S        0.08829    0.17633    0.12988    1.000
    Mo3      Mo       0.42159    0.09307    0.06095    1.000
    S4       S        0.33812    0.17607    0.99186    1.000
    S5       S        0.33847    0.17678    0.12987    1.000
    Mo6      Mo       0.67155    0.09308    0.06094    1.000
    S7       S        0.58807    0.17608    0.99187    1.000
    S8       S        0.58840    0.17682    0.12989    1.000
    Mo9      Mo       0.92153    0.09292    0.06094    1.000
    S10      S        0.83819    0.17623    0.99197    1.000
    S11      S        0.83821    0.17638    0.12989    1.000
    Mo12     Mo       0.17154    0.34297    0.06082    1.000
    S13      S        0.08822    0.42632    0.99190    1.000
    S14      S        0.08824    0.42636    0.12983    1.000
    Mo15     Mo       0.42165    0.34308    0.06055    1.000
    S16      S        0.33802    0.42627    0.99171    1.000
    S17      S        0.33839    0.42631    0.12969    1.000
    Mo18     Mo       0.67156    0.34307    0.06056    1.000
    S19      S        0.58820    0.42622    0.99135    1.000
    S20      S        0.58848    0.42679    0.12904    1.000
    Mo21     Mo       0.92156    0.34298    0.06082    1.000
    S22      S        0.83832    0.42618    0.99168    1.000
    S23      S        0.83808    0.42639    0.12968    1.000
    Mo24     Mo       0.17155    0.59299    0.06088    1.000
    S25      S        0.08852    0.67648    0.99184    1.000
    S26      S        0.08785    0.67614    0.12978    1.000
    Mo27     Mo       0.42148    0.59295    0.06065    1.000
    S28      S        0.33813    0.67648    0.99188    1.000
    S29      S        0.33833    0.67616    0.12983    1.000
    Mo30     Mo       0.67177    0.59308    0.06030    1.000
    S31      S        0.58812    0.67650    0.99155    1.000
    S32      S        0.58838    0.67633    0.12934    1.000
    Mo33     Mo       0.92154    0.59296    0.06056    1.000
    S34      S        0.83854    0.67648    0.99145    1.000
    S35      S        0.83820    0.67611    0.12937    1.000
    Mo36     Mo       0.17157    0.84301    0.06091    1.000
    S37      S        0.08848    0.92645    0.99188    1.000
    S38      S        0.08798    0.92614    0.12983    1.000
    Mo39     Mo       0.42154    0.84301    0.06094    1.000
    S40      S        0.33827    0.92639    0.99200    1.000
    S41      S        0.33821    0.92638    0.12990    1.000
    Mo42     Mo       0.67164    0.84314    0.06062    1.000
    S43      S        0.58812    0.92655    0.99190    1.000
    S44      S        0.58833    0.92623    0.12984    1.000
    Mo45     Mo       0.92157    0.84290    0.06067    1.000
    S46      S        0.83838    0.92652    0.99181    1.000
    S47      S        0.83810    0.92595    0.12979    1.000
    C48      C        0.73201    0.52786    0.27187    1.000
    C49      C        0.67155    0.59083    0.26972    1.000
    C50      C        0.54819    0.53147    0.27197    1.000
    C51      C        0.48533    0.40842    0.27631    1.000
    C52      C        0.54478    0.34468    0.27830    1.000
    C53      C        0.66819    0.40505    0.27621    1.000
    H54      H        0.82741    0.57569    0.27020    1.000
    O55      O        0.73951    0.71290    0.26514    1.000
    H56      H        0.50187    0.58072    0.27025    1.000
    H57      H        0.38992    0.36283    0.27781    1.000
    H58      H        0.49573    0.24947    0.28142    1.000
    H59      H        0.71517    0.35657    0.27764    1.000
    H60      H        0.68841    0.74673    0.26203    1.000
