# CIF file generated by openbabel 3.1.0, see https://openbabel.org
data_I
_chemical_name_common ''
_cell_length_a 13.105
_cell_length_b 13.105
_cell_length_c 23.0122
_cell_angle_alpha 90
_cell_angle_beta 90
_cell_angle_gamma 120
loop_
    _atom_site_label
    _atom_site_type_symbol
    _atom_site_fract_x
    _atom_site_fract_y
    _atom_site_fract_z
    _atom_site_occupancy
    Mo0      Mo       0.16730    0.08379    0.05983    1.000
    S1       S        0.08383    0.16690    0.99078    1.000
    S2       S        0.08412    0.16739    0.12873    1.000
    Mo3      Mo       0.41724    0.08378    0.05982    1.000
    S4       S        0.33371    0.16668    0.99074    1.000
    S5       S        0.33418    0.16758    0.12875    1.000
    Mo6      Mo       0.66720    0.08376    0.05979    1.000
    S7       S        0.58379    0.16693    0.99078    1.000
    S8       S        0.58395    0.16737    0.12873    1.000
    Mo9      Mo       0.91724    0.08375    0.05979    1.000
    S10      S        0.83392    0.16714    0.99086    1.000
    S11      S        0.83391    0.16712    0.12873    1.000
    Mo12     Mo       0.16726    0.33383    0.05950    1.000
    S13      S        0.08390    0.41735    0.99081    1.000
    S14      S        0.08415    0.41707    0.12879    1.000
    Mo15     Mo       0.41729    0.33381    0.05935    1.000
    S16      S        0.33382    0.41716    0.99037    1.000
    S17      S        0.33402    0.41714    0.12811    1.000
    Mo18     Mo       0.66723    0.33383    0.05953    1.000
    S19      S        0.58401    0.41711    0.99035    1.000
    S20      S        0.58390    0.41723    0.12819    1.000
    Mo21     Mo       0.91729    0.33385    0.05980    1.000
    S22      S        0.83413    0.41727    0.99080    1.000
    S23      S        0.83367    0.41708    0.12874    1.000
    Mo24     Mo       0.16742    0.58389    0.05992    1.000
    S25      S        0.08401    0.66716    0.99096    1.000
    S26      S        0.08395    0.66710    0.12887    1.000
    Mo27     Mo       0.41729    0.58392    0.05941    1.000
    S28      S        0.33371    0.66733    0.99074    1.000
    S29      S        0.33428    0.66710    0.12880    1.000
    Mo30     Mo       0.66727    0.58382    0.05937    1.000
    S31      S        0.58399    0.66729    0.99039    1.000
    S32      S        0.58393    0.66707    0.12823    1.000
    Mo33     Mo       0.91729    0.58382    0.05985    1.000
    S34      S        0.83439    0.66735    0.99076    1.000
    S35      S        0.83351    0.66691    0.12876    1.000
    Mo36     Mo       0.16727    0.83378    0.05990    1.000
    S37      S        0.08395    0.91708    0.99092    1.000
    S38      S        0.08391    0.91715    0.12883    1.000
    Mo39     Mo       0.41722    0.83372    0.05981    1.000
    S40      S        0.33384    0.91706    0.99091    1.000
    S41      S        0.33400    0.91712    0.12882    1.000
    Mo42     Mo       0.66724    0.83375    0.05956    1.000
    S43      S        0.58382    0.91718    0.99078    1.000
    S44      S        0.58392    0.91689    0.12874    1.000
    Mo45     Mo       0.91726    0.83378    0.05984    1.000
    S46      S        0.83408    0.91716    0.99079    1.000
    S47      S        0.83366    0.91692    0.12875    1.000
    C48      C        0.50220    0.60814    0.27765    1.000
    C49      C        0.39711    0.49986    0.27488    1.000
    C50      C        0.39924    0.39392    0.27504    1.000
    C51      C        0.50734    0.39691    0.27790    1.000
    C52      C        0.61298    0.50474    0.28064    1.000
    C53      C        0.60971    0.60994    0.28056    1.000
    H54      H        0.49851    0.68890    0.27726    1.000
    O55      O        0.29270    0.50319    0.27137    1.000
    H56      H        0.31743    0.31027    0.27262    1.000
    H57      H        0.50865    0.31484    0.27764    1.000
    H58      H        0.69655    0.50674    0.28251    1.000
    H59      H        0.69104    0.69389    0.28235    1.000
    H60      H        0.22600    0.42337    0.26908    1.000
