# CIF file generated by openbabel 3.1.0, see https://openbabel.org
data_I
_chemical_name_common ''
_cell_length_a 13.105
_cell_length_b 13.105
_cell_length_c 23.0122
_cell_angle_alpha 90
_cell_angle_beta 90
_cell_angle_gamma 120
loop_
    _atom_site_label
    _atom_site_type_symbol
    _atom_site_fract_x
    _atom_site_fract_y
    _atom_site_fract_z
    _atom_site_occupancy
    Mo0      Mo       0.16635    0.08304    0.05982    1.000
    S1       S        0.08298    0.16642    0.99090    1.000
    S2       S        0.08312    0.16643    0.12881    1.000
    Mo3      Mo       0.41631    0.08309    0.05973    1.000
    S4       S        0.33280    0.16611    0.99071    1.000
    S5       S        0.33323    0.16662    0.12867    1.000
    Mo6      Mo       0.66629    0.08311    0.05990    1.000
    S7       S        0.58298    0.16629    0.99082    1.000
    S8       S        0.58294    0.16679    0.12882    1.000
    Mo9      Mo       0.91635    0.08302    0.05986    1.000
    S10      S        0.83296    0.16634    0.99095    1.000
    S11      S        0.83301    0.16642    0.12884    1.000
    Mo12     Mo       0.16641    0.33311    0.05983    1.000
    S13      S        0.08297    0.41643    0.99092    1.000
    S14      S        0.08299    0.41634    0.12883    1.000
    Mo15     Mo       0.41627    0.33311    0.05947    1.000
    S16      S        0.33278    0.41638    0.99068    1.000
    S17      S        0.33328    0.41640    0.12876    1.000
    Mo18     Mo       0.66627    0.33323    0.05958    1.000
    S19      S        0.58296    0.41640    0.99033    1.000
    S20      S        0.58294    0.41685    0.12792    1.000
    Mo21     Mo       0.91629    0.33307    0.05983    1.000
    S22      S        0.83307    0.41637    0.99077    1.000
    S23      S        0.83274    0.41642    0.12876    1.000
    Mo24     Mo       0.16631    0.58304    0.05991    1.000
    S25      S        0.08309    0.66637    0.99090    1.000
    S26      S        0.08270    0.66628    0.12882    1.000
    Mo27     Mo       0.41633    0.58297    0.05967    1.000
    S28      S        0.33284    0.66639    0.99089    1.000
    S29      S        0.33314    0.66620    0.12883    1.000
    Mo30     Mo       0.66641    0.58332    0.05928    1.000
    S31      S        0.58282    0.66663    0.99051    1.000
    S32      S        0.58313    0.66645    0.12844    1.000
    Mo33     Mo       0.91621    0.58305    0.05970    1.000
    S34      S        0.83336    0.66660    0.99050    1.000
    S35      S        0.83285    0.66645    0.12845    1.000
    Mo36     Mo       0.16622    0.83302    0.05986    1.000
    S37      S        0.08314    0.91649    0.99083    1.000
    S38      S        0.08282    0.91633    0.12879    1.000
    Mo39     Mo       0.41632    0.83297    0.05987    1.000
    S40      S        0.33291    0.91622    0.99090    1.000
    S41      S        0.33298    0.91644    0.12878    1.000
    Mo42     Mo       0.66626    0.83308    0.05964    1.000
    S43      S        0.58292    0.91660    0.99087    1.000
    S44      S        0.58304    0.91626    0.12880    1.000
    Mo45     Mo       0.91636    0.83302    0.05965    1.000
    S46      S        0.83306    0.91652    0.99078    1.000
    S47      S        0.83284    0.91609    0.12873    1.000
    C48      C        0.51592    0.50627    0.27895    1.000
    C49      C        0.51756    0.40044    0.27522    1.000
    C50      C        0.62473    0.40093    0.27416    1.000
    C51      C        0.73072    0.50829    0.27653    1.000
    C52      C        0.73019    0.61463    0.28019    1.000
    C53      C        0.62246    0.61289    0.28150    1.000
    H54      H        0.43204    0.50373    0.27963    1.000
    O55      O        0.40897    0.29706    0.27175    1.000
    H56      H        0.62530    0.31856    0.27071    1.000
    H57      H        0.81352    0.50853    0.27510    1.000
    H58      H        0.81241    0.69758    0.28187    1.000
    H59      H        0.62119    0.69480    0.28443    1.000
    H60      H        0.42075    0.22971    0.26798    1.000
