# CIF file generated by openbabel 3.1.0, see https://openbabel.org
data_I
_chemical_name_common ''
_cell_length_a 13.105
_cell_length_b 13.105
_cell_length_c 23.0122
_cell_angle_alpha 90
_cell_angle_beta 90
_cell_angle_gamma 120
loop_
    _atom_site_label
    _atom_site_type_symbol
    _atom_site_fract_x
    _atom_site_fract_y
    _atom_site_fract_z
    _atom_site_occupancy
    Mo0      Mo       0.16521    0.08246    0.06123    1.000
    S1       S        0.08183    0.16580    0.99232    1.000
    S2       S        0.08198    0.16588    0.13023    1.000
    Mo3      Mo       0.41523    0.08250    0.06132    1.000
    S4       S        0.33175    0.16543    0.99216    1.000
    S5       S        0.33194    0.16607    0.13012    1.000
    Mo6      Mo       0.66514    0.08248    0.06130    1.000
    S7       S        0.58173    0.16560    0.99225    1.000
    S8       S        0.58201    0.16612    0.13024    1.000
    Mo9      Mo       0.91517    0.08247    0.06132    1.000
    S10      S        0.83185    0.16587    0.99240    1.000
    S11      S        0.83179    0.16584    0.13028    1.000
    Mo12     Mo       0.16512    0.33248    0.06121    1.000
    S13      S        0.08184    0.41594    0.99238    1.000
    S14      S        0.08188    0.41575    0.13033    1.000
    Mo15     Mo       0.41521    0.33244    0.06087    1.000
    S16      S        0.33174    0.41606    0.99220    1.000
    S17      S        0.33191    0.41565    0.13007    1.000
    Mo18     Mo       0.66518    0.33256    0.06100    1.000
    S19      S        0.58191    0.41582    0.99176    1.000
    S20      S        0.58183    0.41612    0.12934    1.000
    Mo21     Mo       0.91517    0.33256    0.06132    1.000
    S22      S        0.83212    0.41599    0.99226    1.000
    S23      S        0.83155    0.41576    0.13026    1.000
    Mo24     Mo       0.16528    0.58251    0.06143    1.000
    S25      S        0.08205    0.66592    0.99247    1.000
    S26      S        0.08177    0.66578    0.13036    1.000
    Mo27     Mo       0.41538    0.58264    0.06131    1.000
    S28      S        0.33188    0.66598    0.99248    1.000
    S29      S        0.33206    0.66571    0.13042    1.000
    Mo30     Mo       0.66523    0.58263    0.06081    1.000
    S31      S        0.58172    0.66605    0.99210    1.000
    S32      S        0.58220    0.66578    0.13015    1.000
    Mo33     Mo       0.91519    0.58250    0.06131    1.000
    S34      S        0.83232    0.66602    0.99216    1.000
    S35      S        0.83151    0.66571    0.13016    1.000
    Mo36     Mo       0.16523    0.83254    0.06143    1.000
    S37      S        0.08193    0.91577    0.99236    1.000
    S38      S        0.08182    0.91590    0.13031    1.000
    Mo39     Mo       0.41528    0.83250    0.06148    1.000
    S40      S        0.33189    0.91569    0.99248    1.000
    S41      S        0.33198    0.91598    0.13039    1.000
    Mo42     Mo       0.66516    0.83243    0.06124    1.000
    S43      S        0.58177    0.91582    0.99239    1.000
    S44      S        0.58204    0.91584    0.13035    1.000
    Mo45     Mo       0.91522    0.83249    0.06125    1.000
    S46      S        0.83187    0.91583    0.99234    1.000
    S47      S        0.83175    0.91566    0.13025    1.000
    C48      C        0.63737    0.53981    0.27282    1.000
    C49      C        0.51392    0.47722    0.27102    1.000
    C50      C        0.45228    0.35373    0.26983    1.000
    C51      C        0.51483    0.29292    0.27049    1.000
    C52      C        0.63808    0.35453    0.27239    1.000
    C53      C        0.69870    0.47799    0.27353    1.000
    H54      H        0.68327    0.63522    0.27347    1.000
    O55      O        0.45719    0.54299    0.27022    1.000
    H56      H        0.35668    0.30571    0.26818    1.000
    H57      H        0.46688    0.19744    0.26921    1.000
    H58      H        0.68618    0.30718    0.27261    1.000
    H59      H        0.79419    0.52659    0.27459    1.000
    H60      H        0.37255    0.49043    0.26689    1.000
