# CIF file generated by openbabel 3.1.0, see https://openbabel.org
data_I
_chemical_name_common ''
_cell_length_a 13.105
_cell_length_b 13.105
_cell_length_c 23.0122
_cell_angle_alpha 90
_cell_angle_beta 90
_cell_angle_gamma 120
loop_
    _atom_site_label
    _atom_site_type_symbol
    _atom_site_fract_x
    _atom_site_fract_y
    _atom_site_fract_z
    _atom_site_occupancy
    Mo0      Mo       0.16729    0.09306    0.06074    1.000
    S1       S        0.08400    0.17640    0.99176    1.000
    S2       S        0.08375    0.17629    0.12967    1.000
    Mo3      Mo       0.41718    0.09303    0.06088    1.000
    S4       S        0.33395    0.17625    0.99183    1.000
    S5       S        0.33403    0.17665    0.12983    1.000
    Mo6      Mo       0.66709    0.09306    0.06064    1.000
    S7       S        0.58355    0.17618    0.99173    1.000
    S8       S        0.58409    0.17671    0.12975    1.000
    Mo9      Mo       0.91715    0.09307    0.06058    1.000
    S10      S        0.83378    0.17642    0.99170    1.000
    S11      S        0.83380    0.17636    0.12962    1.000
    Mo12     Mo       0.16715    0.34299    0.06072    1.000
    S13      S        0.08379    0.42626    0.99177    1.000
    S14      S        0.08363    0.42619    0.12969    1.000
    Mo15     Mo       0.41729    0.34312    0.06061    1.000
    S16      S        0.33362    0.42617    0.99167    1.000
    S17      S        0.33402    0.42643    0.12968    1.000
    Mo18     Mo       0.66717    0.34314    0.06046    1.000
    S19      S        0.58361    0.42617    0.99135    1.000
    S20      S        0.58422    0.42686    0.12916    1.000
    Mo21     Mo       0.91702    0.34302    0.06064    1.000
    S22      S        0.83380    0.42620    0.99151    1.000
    S23      S        0.83361    0.42637    0.12955    1.000
    Mo24     Mo       0.16700    0.59289    0.06073    1.000
    S25      S        0.08394    0.67629    0.99165    1.000
    S26      S        0.08343    0.67609    0.12966    1.000
    Mo27     Mo       0.41700    0.59295    0.06051    1.000
    S28      S        0.33354    0.67627    0.99169    1.000
    S29      S        0.33375    0.67618    0.12963    1.000
    Mo30     Mo       0.66699    0.59309    0.06012    1.000
    S31      S        0.58337    0.67632    0.99127    1.000
    S32      S        0.58394    0.67665    0.12910    1.000
    Mo33     Mo       0.91713    0.59286    0.06042    1.000
    S34      S        0.83394    0.67632    0.99124    1.000
    S35      S        0.83392    0.67683    0.12881    1.000
    Mo36     Mo       0.16705    0.84285    0.06070    1.000
    S37      S        0.08431    0.92658    0.99157    1.000
    S38      S        0.08342    0.92608    0.12953    1.000
    Mo39     Mo       0.41705    0.84292    0.06069    1.000
    S40      S        0.33379    0.92637    0.99186    1.000
    S41      S        0.33369    0.92612    0.12976    1.000
    Mo42     Mo       0.66705    0.84310    0.06021    1.000
    S43      S        0.58349    0.92649    0.99155    1.000
    S44      S        0.58391    0.92624    0.12949    1.000
    Mo45     Mo       0.91724    0.84326    0.06012    1.000
    S46      S        0.83387    0.92674    0.99131    1.000
    S47      S        0.83359    0.92606    0.12928    1.000
    C48      C        0.67954    0.41128    0.27821    1.000
    C49      C        0.74266    0.53354    0.26970    1.000
    C50      C        0.68368    0.59788    0.26677    1.000
    C51      C        0.56086    0.53912    0.27246    1.000
    C52      C        0.49706    0.41714    0.28109    1.000
    C53      C        0.55706    0.35376    0.28401    1.000
    H54      H        0.72709    0.36350    0.28035    1.000
    O55      O        0.86447    0.58591    0.26447    1.000
    H56      H        0.73298    0.69254    0.26008    1.000
    H57      H        0.51545    0.58903    0.26988    1.000
    H58      H        0.40208    0.37205    0.28538    1.000
    H59      H        0.50852    0.25922    0.29063    1.000
    H60      H        0.89828    0.66921    0.25543    1.000
