# CIF file generated by openbabel 3.1.0, see https://openbabel.org
data_I
_chemical_name_common ''
_cell_length_a 13.105
_cell_length_b 13.105
_cell_length_c 23.0122
_cell_angle_alpha 90
_cell_angle_beta 90
_cell_angle_gamma 120
loop_
    _atom_site_label
    _atom_site_type_symbol
    _atom_site_fract_x
    _atom_site_fract_y
    _atom_site_fract_z
    _atom_site_occupancy
    Mo0      Mo       0.16704    0.08385    0.05973    1.000
    S1       S        0.08357    0.16691    0.99069    1.000
    S2       S        0.08384    0.16743    0.12864    1.000
    Mo3      Mo       0.41698    0.08380    0.05975    1.000
    S4       S        0.33359    0.16692    0.99071    1.000
    S5       S        0.33377    0.16740    0.12867    1.000
    Mo6      Mo       0.66695    0.08367    0.05967    1.000
    S7       S        0.58363    0.16711    0.99078    1.000
    S8       S        0.58366    0.16706    0.12868    1.000
    Mo9      Mo       0.91701    0.08379    0.05970    1.000
    S10      S        0.83364    0.16710    0.99074    1.000
    S11      S        0.83363    0.16707    0.12865    1.000
    Mo12     Mo       0.16708    0.33383    0.05942    1.000
    S13      S        0.08348    0.41700    0.99055    1.000
    S14      S        0.08397    0.41728    0.12855    1.000
    Mo15     Mo       0.41696    0.33381    0.05946    1.000
    S16      S        0.33358    0.41686    0.99026    1.000
    S17      S        0.33375    0.41726    0.12807    1.000
    Mo18     Mo       0.66694    0.33378    0.05970    1.000
    S19      S        0.58373    0.41704    0.99061    1.000
    S20      S        0.58348    0.41727    0.12862    1.000
    Mo21     Mo       0.91701    0.33378    0.05965    1.000
    S22      S        0.83360    0.41709    0.99076    1.000
    S23      S        0.83365    0.41708    0.12866    1.000
    Mo24     Mo       0.16707    0.58380    0.05938    1.000
    S25      S        0.08351    0.66722    0.99068    1.000
    S26      S        0.08391    0.66703    0.12863    1.000
    Mo27     Mo       0.41705    0.58380    0.05912    1.000
    S28      S        0.33360    0.66726    0.99022    1.000
    S29      S        0.33381    0.66725    0.12790    1.000
    Mo30     Mo       0.66697    0.58382    0.05946    1.000
    S31      S        0.58395    0.66724    0.99028    1.000
    S32      S        0.58357    0.66715    0.12812    1.000
    Mo33     Mo       0.91697    0.58377    0.05972    1.000
    S34      S        0.83385    0.66718    0.99070    1.000
    S35      S        0.83338    0.66702    0.12864    1.000
    Mo36     Mo       0.16705    0.83382    0.05968    1.000
    S37      S        0.08366    0.91716    0.99078    1.000
    S38      S        0.08367    0.91712    0.12867    1.000
    Mo39     Mo       0.41709    0.83388    0.05936    1.000
    S40      S        0.33359    0.91736    0.99067    1.000
    S41      S        0.33380    0.91688    0.12866    1.000
    Mo42     Mo       0.66696    0.83379    0.05940    1.000
    S43      S        0.58382    0.91733    0.99050    1.000
    S44      S        0.58348    0.91679    0.12857    1.000
    Mo45     Mo       0.91695    0.83377    0.05971    1.000
    S46      S        0.83390    0.91727    0.99067    1.000
    S47      S        0.83334    0.91696    0.12862    1.000
    C48      C        0.51486    0.68824    0.27851    1.000
    C49      C        0.40676    0.68533    0.27543    1.000
    C50      C        0.30069    0.57742    0.27525    1.000
    C51      C        0.30346    0.47219    0.27816    1.000
    C52      C        0.41106    0.47404    0.28128    1.000
    C53      C        0.51634    0.58241    0.28147    1.000
    H54      H        0.59572    0.77260    0.27832    1.000
    O55      O        0.41063    0.79329    0.27177    1.000
    H56      H        0.21718    0.57580    0.27239    1.000
    H57      H        0.22132    0.38893    0.27756    1.000
    H58      H        0.41287    0.39238    0.28314    1.000
    H59      H        0.60017    0.58486    0.28360    1.000
    H60      H        0.33102    0.78064    0.26908    1.000
