# CIF file generated by openbabel 3.1.0, see https://openbabel.org
data_I
_chemical_name_common ''
_cell_length_a 13.105
_cell_length_b 13.105
_cell_length_c 23.0122
_cell_angle_alpha 90
_cell_angle_beta 90
_cell_angle_gamma 120
loop_
    _atom_site_label
    _atom_site_type_symbol
    _atom_site_fract_x
    _atom_site_fract_y
    _atom_site_fract_z
    _atom_site_occupancy
    Mo0      Mo       0.16742    0.08515    0.05914    1.000
    S1       S        0.08404    0.16834    0.99015    1.000
    S2       S        0.08417    0.16865    0.12809    1.000
    Mo3      Mo       0.41741    0.08516    0.05910    1.000
    S4       S        0.33401    0.16838    0.99015    1.000
    S5       S        0.33416    0.16867    0.12810    1.000
    Mo6      Mo       0.66742    0.08512    0.05888    1.000
    S7       S        0.58398    0.16857    0.99008    1.000
    S8       S        0.58411    0.16833    0.12798    1.000
    Mo9      Mo       0.91740    0.08509    0.05910    1.000
    S10      S        0.83426    0.16853    0.99006    1.000
    S11      S        0.83394    0.16833    0.12797    1.000
    Mo12     Mo       0.16750    0.33518    0.05895    1.000
    S13      S        0.08406    0.41845    0.99005    1.000
    S14      S        0.08431    0.41859    0.12805    1.000
    Mo15     Mo       0.41740    0.33518    0.05896    1.000
    S16      S        0.33394    0.41813    0.98977    1.000
    S17      S        0.33421    0.41868    0.12761    1.000
    Mo18     Mo       0.66736    0.33516    0.05909    1.000
    S19      S        0.58412    0.41850    0.99010    1.000
    S20      S        0.58396    0.41860    0.12811    1.000
    Mo21     Mo       0.91746    0.33513    0.05905    1.000
    S22      S        0.83403    0.41843    0.99016    1.000
    S23      S        0.83407    0.41842    0.12804    1.000
    Mo24     Mo       0.16749    0.58519    0.05890    1.000
    S25      S        0.08392    0.66847    0.99012    1.000
    S26      S        0.08422    0.66837    0.12806    1.000
    Mo27     Mo       0.41749    0.58516    0.05860    1.000
    S28      S        0.33393    0.66847    0.98967    1.000
    S29      S        0.33441    0.66874    0.12745    1.000
    Mo30     Mo       0.66737    0.58521    0.05899    1.000
    S31      S        0.58433    0.66850    0.98973    1.000
    S32      S        0.58400    0.66870    0.12763    1.000
    Mo33     Mo       0.91737    0.58510    0.05912    1.000
    S34      S        0.83416    0.66846    0.99015    1.000
    S35      S        0.83387    0.66842    0.12808    1.000
    Mo36     Mo       0.16738    0.83509    0.05911    1.000
    S37      S        0.08406    0.91844    0.99017    1.000
    S38      S        0.08404    0.91842    0.12805    1.000
    Mo39     Mo       0.41754    0.83523    0.05865    1.000
    S40      S        0.33391    0.91865    0.99004    1.000
    S41      S        0.33429    0.91824    0.12800    1.000
    Mo42     Mo       0.66742    0.83518    0.05877    1.000
    S43      S        0.58424    0.91864    0.98976    1.000
    S44      S        0.58404    0.91842    0.12776    1.000
    Mo45     Mo       0.91736    0.83512    0.05911    1.000
    S46      S        0.83435    0.91859    0.99005    1.000
    S47      S        0.83371    0.91826    0.12802    1.000
    C48      C        0.53528    0.64430    0.28072    1.000
    C49      C        0.47055    0.70291    0.27901    1.000
    C50      C        0.34716    0.63916    0.27839    1.000
    C51      C        0.28839    0.51590    0.27939    1.000
    C52      C        0.35214    0.45646    0.28098    1.000
    C53      C        0.47558    0.52122    0.28166    1.000
    H54      H        0.63063    0.69547    0.28105    1.000
    O55      O        0.53453    0.82556    0.27745    1.000
    H56      H        0.29776    0.68535    0.27689    1.000
    H57      H        0.19291    0.46683    0.27850    1.000
    H58      H        0.30637    0.36105    0.28144    1.000
    H59      H        0.52564    0.47582    0.28268    1.000
    H60      H        0.48078    0.85642    0.27587    1.000
