# CIF file generated by openbabel 3.1.0, see https://openbabel.org
data_I
_chemical_name_common ''
_cell_length_a 13.105
_cell_length_b 13.105
_cell_length_c 23.0122
_cell_angle_alpha 90
_cell_angle_beta 90
_cell_angle_gamma 120
loop_
    _atom_site_label
    _atom_site_type_symbol
    _atom_site_fract_x
    _atom_site_fract_y
    _atom_site_fract_z
    _atom_site_occupancy
    Mo0      Mo       0.16474    0.08204    0.06128    1.000
    S1       S        0.08133    0.16534    0.99238    1.000
    S2       S        0.08155    0.16549    0.13029    1.000
    Mo3      Mo       0.41484    0.08221    0.06136    1.000
    S4       S        0.33131    0.16510    0.99222    1.000
    S5       S        0.33149    0.16574    0.13019    1.000
    Mo6      Mo       0.66474    0.08211    0.06132    1.000
    S7       S        0.58128    0.16513    0.99223    1.000
    S8       S        0.58169    0.16580    0.13024    1.000
    Mo9      Mo       0.91473    0.08202    0.06139    1.000
    S10      S        0.83144    0.16537    0.99241    1.000
    S11      S        0.83141    0.16552    0.13031    1.000
    Mo12     Mo       0.16473    0.33211    0.06123    1.000
    S13      S        0.08144    0.41553    0.99235    1.000
    S14      S        0.08139    0.41537    0.13030    1.000
    Mo15     Mo       0.41478    0.33209    0.06093    1.000
    S16      S        0.33127    0.41556    0.99215    1.000
    S17      S        0.33147    0.41528    0.13009    1.000
    Mo18     Mo       0.66480    0.33208    0.06095    1.000
    S19      S        0.58150    0.41545    0.99181    1.000
    S20      S        0.58152    0.41537    0.12936    1.000
    Mo21     Mo       0.91479    0.33215    0.06127    1.000
    S22      S        0.83173    0.41557    0.99218    1.000
    S23      S        0.83120    0.41536    0.13018    1.000
    Mo24     Mo       0.16473    0.58211    0.06140    1.000
    S25      S        0.08160    0.66559    0.99243    1.000
    S26      S        0.08122    0.66534    0.13035    1.000
    Mo27     Mo       0.41468    0.58206    0.06123    1.000
    S28      S        0.33138    0.66561    0.99243    1.000
    S29      S        0.33147    0.66532    0.13035    1.000
    Mo30     Mo       0.66491    0.58208    0.06097    1.000
    S31      S        0.58135    0.66562    0.99226    1.000
    S32      S        0.58140    0.66523    0.13015    1.000
    Mo33     Mo       0.91472    0.58211    0.06125    1.000
    S34      S        0.83176    0.66561    0.99219    1.000
    S35      S        0.83125    0.66509    0.13024    1.000
    Mo36     Mo       0.16475    0.83214    0.06146    1.000
    S37      S        0.08140    0.91533    0.99243    1.000
    S38      S        0.08137    0.91547    0.13038    1.000
    Mo39     Mo       0.41481    0.83215    0.06146    1.000
    S40      S        0.33142    0.91540    0.99251    1.000
    S41      S        0.33151    0.91562    0.13041    1.000
    Mo42     Mo       0.66478    0.83215    0.06133    1.000
    S43      S        0.58140    0.91544    0.99243    1.000
    S44      S        0.58156    0.91552    0.13037    1.000
    Mo45     Mo       0.91471    0.83192    0.06138    1.000
    S46      S        0.83146    0.91539    0.99244    1.000
    S47      S        0.83136    0.91523    0.13038    1.000
    C48      C        0.70146    0.47577    0.27300    1.000
    C49      C        0.63815    0.53590    0.27145    1.000
    C50      C        0.51468    0.47348    0.27002    1.000
    C51      C        0.45452    0.35015    0.27009    1.000
    C52      C        0.51678    0.28919    0.27160    1.000
    C53      C        0.64022    0.35264    0.27311    1.000
    H54      H        0.79685    0.52574    0.27388    1.000
    O55      O        0.70342    0.65842    0.27094    1.000
    H56      H        0.46629    0.52070    0.26863    1.000
    H57      H        0.35906    0.30218    0.26862    1.000
    H58      H        0.46994    0.19375    0.27131    1.000
    H59      H        0.68920    0.30614    0.27402    1.000
    H60      H        0.65066    0.69027    0.26759    1.000
