# CIF file generated by openbabel 3.1.0, see https://openbabel.org
data_I
_chemical_name_common ''
_cell_length_a 13.105
_cell_length_b 13.105
_cell_length_c 23.0122
_cell_angle_alpha 90
_cell_angle_beta 90
_cell_angle_gamma 120
loop_
    _atom_site_label
    _atom_site_type_symbol
    _atom_site_fract_x
    _atom_site_fract_y
    _atom_site_fract_z
    _atom_site_occupancy
    Mo0      Mo       0.16705    0.08438    0.05985    1.000
    S1       S        0.08353    0.16750    0.99086    1.000
    S2       S        0.08360    0.16758    0.12880    1.000
    Mo3      Mo       0.41702    0.08432    0.05993    1.000
    S4       S        0.33366    0.16742    0.99085    1.000
    S5       S        0.33396    0.16808    0.12883    1.000
    Mo6      Mo       0.66697    0.08440    0.05991    1.000
    S7       S        0.58355    0.16749    0.99088    1.000
    S8       S        0.58378    0.16810    0.12885    1.000
    Mo9      Mo       0.91689    0.08424    0.05983    1.000
    S10      S        0.83357    0.16763    0.99092    1.000
    S11      S        0.83362    0.16764    0.12884    1.000
    Mo12     Mo       0.16680    0.33415    0.05973    1.000
    S13      S        0.08360    0.41770    0.99089    1.000
    S14      S        0.08369    0.41766    0.12881    1.000
    Mo15     Mo       0.41718    0.33437    0.05951    1.000
    S16      S        0.33341    0.41745    0.99070    1.000
    S17      S        0.33359    0.41739    0.12854    1.000
    Mo18     Mo       0.66703    0.33450    0.05958    1.000
    S19      S        0.58371    0.41767    0.99039    1.000
    S20      S        0.58396    0.41824    0.12814    1.000
    Mo21     Mo       0.91694    0.33433    0.05984    1.000
    S22      S        0.83374    0.41758    0.99074    1.000
    S23      S        0.83347    0.41776    0.12877    1.000
    Mo24     Mo       0.16705    0.58437    0.05988    1.000
    S25      S        0.08382    0.66774    0.99088    1.000
    S26      S        0.08337    0.66751    0.12882    1.000
    Mo27     Mo       0.41691    0.58431    0.05960    1.000
    S28      S        0.33352    0.66775    0.99083    1.000
    S29      S        0.33384    0.66743    0.12885    1.000
    Mo30     Mo       0.66705    0.58458    0.05929    1.000
    S31      S        0.58342    0.66779    0.99042    1.000
    S32      S        0.58357    0.66769    0.12825    1.000
    Mo33     Mo       0.91693    0.58432    0.05965    1.000
    S34      S        0.83396    0.66782    0.99048    1.000
    S35      S        0.83352    0.66773    0.12840    1.000
    Mo36     Mo       0.16699    0.83433    0.05990    1.000
    S37      S        0.08396    0.91782    0.99084    1.000
    S38      S        0.08348    0.91761    0.12878    1.000
    Mo39     Mo       0.41694    0.83425    0.05991    1.000
    S40      S        0.33365    0.91763    0.99097    1.000
    S41      S        0.33364    0.91759    0.12888    1.000
    Mo42     Mo       0.66686    0.83431    0.05954    1.000
    S43      S        0.58349    0.91790    0.99085    1.000
    S44      S        0.58373    0.91753    0.12881    1.000
    Mo45     Mo       0.91704    0.83434    0.05958    1.000
    S46      S        0.83370    0.91781    0.99070    1.000
    S47      S        0.83338    0.91725    0.12867    1.000
    C48      C        0.63335    0.62840    0.27473    1.000
    C49      C        0.52450    0.52354    0.27323    1.000
    C50      C        0.51914    0.41427    0.27684    1.000
    C51      C        0.62362    0.41022    0.28154    1.000
    C52      C        0.73274    0.51430    0.28268    1.000
    C53      C        0.73686    0.62313    0.27947    1.000
    H54      H        0.63530    0.71187    0.27204    1.000
    O55      O        0.42450    0.53433    0.26779    1.000
    H56      H        0.43450    0.33338    0.27563    1.000
    H57      H        0.61924    0.32554    0.28406    1.000
    H58      H        0.81339    0.51090    0.28609    1.000
    H59      H        0.82099    0.70427    0.28042    1.000
    H60      H        0.35509    0.45665    0.26361    1.000
