# CIF file generated by openbabel 3.1.0, see https://openbabel.org
data_I
_chemical_name_common ''
_cell_length_a 13.105
_cell_length_b 13.105
_cell_length_c 23.0122
_cell_angle_alpha 90
_cell_angle_beta 90
_cell_angle_gamma 120
loop_
    _atom_site_label
    _atom_site_type_symbol
    _atom_site_fract_x
    _atom_site_fract_y
    _atom_site_fract_z
    _atom_site_occupancy
    Mo0      Mo       0.16661    0.08350    0.06027    1.000
    S1       S        0.08321    0.16686    0.99141    1.000
    S2       S        0.08341    0.16685    0.12934    1.000
    Mo3      Mo       0.41662    0.08347    0.06044    1.000
    S4       S        0.33336    0.16674    0.99138    1.000
    S5       S        0.33330    0.16701    0.12929    1.000
    Mo6      Mo       0.66665    0.08354    0.06037    1.000
    S7       S        0.58314    0.16659    0.99135    1.000
    S8       S        0.58346    0.16709    0.12932    1.000
    Mo9      Mo       0.91665    0.08354    0.06045    1.000
    S10      S        0.83334    0.16688    0.99149    1.000
    S11      S        0.83327    0.16694    0.12940    1.000
    Mo12     Mo       0.16660    0.33352    0.06035    1.000
    S13      S        0.08328    0.41692    0.99144    1.000
    S14      S        0.08322    0.41680    0.12939    1.000
    Mo15     Mo       0.41678    0.33361    0.06018    1.000
    S16      S        0.33328    0.41703    0.99140    1.000
    S17      S        0.33334    0.41673    0.12931    1.000
    Mo18     Mo       0.66665    0.33355    0.06011    1.000
    S19      S        0.58321    0.41662    0.99094    1.000
    S20      S        0.58368    0.41716    0.12869    1.000
    Mo21     Mo       0.91659    0.33357    0.06038    1.000
    S22      S        0.83345    0.41680    0.99124    1.000
    S23      S        0.83314    0.41702    0.12926    1.000
    Mo24     Mo       0.16661    0.58352    0.06046    1.000
    S25      S        0.08359    0.66692    0.99135    1.000
    S26      S        0.08312    0.66681    0.12932    1.000
    Mo27     Mo       0.41661    0.58355    0.06044    1.000
    S28      S        0.33331    0.66690    0.99155    1.000
    S29      S        0.33326    0.66679    0.12950    1.000
    Mo30     Mo       0.66667    0.58346    0.05982    1.000
    S31      S        0.58297    0.66697    0.99123    1.000
    S32      S        0.58372    0.66682    0.12916    1.000
    Mo33     Mo       0.91672    0.58355    0.06015    1.000
    S34      S        0.83351    0.66683    0.99096    1.000
    S35      S        0.83313    0.66673    0.12885    1.000
    Mo36     Mo       0.16666    0.83348    0.06038    1.000
    S37      S        0.08347    0.91685    0.99127    1.000
    S38      S        0.08306    0.91671    0.12921    1.000
    Mo39     Mo       0.41665    0.83351    0.06052    1.000
    S40      S        0.33339    0.91680    0.99151    1.000
    S41      S        0.33321    0.91683    0.12945    1.000
    Mo42     Mo       0.66663    0.83357    0.06026    1.000
    S43      S        0.58317    0.91686    0.99143    1.000
    S44      S        0.58346    0.91691    0.12939    1.000
    Mo45     Mo       0.91658    0.83340    0.06005    1.000
    S46      S        0.83327    0.91705    0.99133    1.000
    S47      S        0.83328    0.91652    0.12926    1.000
    C48      C        0.68810    0.41696    0.27609    1.000
    C49      C        0.68486    0.52223    0.27576    1.000
    C50      C        0.57691    0.52011    0.27417    1.000
    C51      C        0.47175    0.41172    0.27315    1.000
    C52      C        0.47388    0.30603    0.27355    1.000
    C53      C        0.58245    0.30942    0.27504    1.000
    H54      H        0.77252    0.42065    0.27725    1.000
    O55      O        0.79256    0.62678    0.27715    1.000
    H56      H        0.57516    0.60207    0.27391    1.000
    H57      H        0.38841    0.41036    0.27192    1.000
    H58      H        0.39238    0.22234    0.27282    1.000
    H59      H        0.58506    0.22806    0.27529    1.000
    H60      H        0.77952    0.69351    0.27474    1.000
