# CIF file generated by openbabel 3.1.0, see https://openbabel.org
data_I
_chemical_name_common ''
_cell_length_a 13.105
_cell_length_b 13.105
_cell_length_c 23.0122
_cell_angle_alpha 90
_cell_angle_beta 90
_cell_angle_gamma 120
loop_
    _atom_site_label
    _atom_site_type_symbol
    _atom_site_fract_x
    _atom_site_fract_y
    _atom_site_fract_z
    _atom_site_occupancy
    Mo0      Mo       0.16595    0.08403    0.05929    1.000
    S1       S        0.08249    0.16709    0.99023    1.000
    S2       S        0.08274    0.16756    0.12818    1.000
    Mo3      Mo       0.41589    0.08403    0.05930    1.000
    S4       S        0.33247    0.16708    0.99025    1.000
    S5       S        0.33274    0.16769    0.12825    1.000
    Mo6      Mo       0.66584    0.08392    0.05925    1.000
    S7       S        0.58246    0.16718    0.99028    1.000
    S8       S        0.58259    0.16749    0.12823    1.000
    Mo9      Mo       0.91590    0.08397    0.05924    1.000
    S10      S        0.83253    0.16734    0.99032    1.000
    S11      S        0.83256    0.16728    0.12820    1.000
    Mo12     Mo       0.16595    0.33399    0.05897    1.000
    S13      S        0.08244    0.41727    0.99018    1.000
    S14      S        0.08294    0.41748    0.12814    1.000
    Mo15     Mo       0.41595    0.33406    0.05895    1.000
    S16      S        0.33249    0.41718    0.98984    1.000
    S17      S        0.33265    0.41760    0.12764    1.000
    Mo18     Mo       0.66587    0.33402    0.05907    1.000
    S19      S        0.58263    0.41730    0.98996    1.000
    S20      S        0.58255    0.41738    0.12780    1.000
    Mo21     Mo       0.91590    0.33402    0.05926    1.000
    S22      S        0.83269    0.41742    0.99028    1.000
    S23      S        0.83238    0.41732    0.12822    1.000
    Mo24     Mo       0.16597    0.58407    0.05906    1.000
    S25      S        0.08247    0.66743    0.99028    1.000
    S26      S        0.08268    0.66725    0.12819    1.000
    Mo27     Mo       0.41587    0.58407    0.05873    1.000
    S28      S        0.33243    0.66760    0.98997    1.000
    S29      S        0.33262    0.66717    0.12795    1.000
    Mo30     Mo       0.66582    0.58398    0.05897    1.000
    S31      S        0.58274    0.66747    0.98988    1.000
    S32      S        0.58226    0.66719    0.12778    1.000
    Mo33     Mo       0.91586    0.58402    0.05928    1.000
    S34      S        0.83281    0.66747    0.99026    1.000
    S35      S        0.83220    0.66718    0.12826    1.000
    Mo36     Mo       0.16595    0.83402    0.05929    1.000
    S37      S        0.08258    0.91734    0.99037    1.000
    S38      S        0.08260    0.91734    0.12826    1.000
    Mo39     Mo       0.41590    0.83399    0.05916    1.000
    S40      S        0.33256    0.91744    0.99031    1.000
    S41      S        0.33268    0.91727    0.12823    1.000
    Mo42     Mo       0.66584    0.83392    0.05905    1.000
    S43      S        0.58259    0.91740    0.99021    1.000
    S44      S        0.58247    0.91705    0.12818    1.000
    Mo45     Mo       0.91588    0.83397    0.05930    1.000
    S46      S        0.83273    0.91736    0.99026    1.000
    S47      S        0.83233    0.91717    0.12821    1.000
    C48      C        0.56060    0.62718    0.28044    1.000
    C49      C        0.43725    0.56307    0.27885    1.000
    C50      C        0.37693    0.43965    0.27785    1.000
    C51      C        0.44085    0.38029    0.27820    1.000
    C52      C        0.56410    0.44348    0.27967    1.000
    C53      C        0.62345    0.56693    0.28086    1.000
    H54      H        0.60523    0.72255    0.28111    1.000
    O55      O        0.37925    0.62774    0.27790    1.000
    H56      H        0.28131    0.39074    0.27656    1.000
    H57      H        0.39398    0.28480    0.27705    1.000
    H58      H        0.61321    0.39718    0.27964    1.000
    H59      H        0.71893    0.61651    0.28181    1.000
    H60      H        0.29456    0.57448    0.27613    1.000
