# CIF file generated by openbabel 3.1.0, see https://openbabel.org
data_I
_chemical_name_common ''
_cell_length_a 13.105
_cell_length_b 13.105
_cell_length_c 23.0122
_cell_angle_alpha 90
_cell_angle_beta 90
_cell_angle_gamma 120
loop_
    _atom_site_label
    _atom_site_type_symbol
    _atom_site_fract_x
    _atom_site_fract_y
    _atom_site_fract_z
    _atom_site_occupancy
    Mo0      Mo       0.16647    0.08318    0.05998    1.000
    S1       S        0.08304    0.16647    0.99105    1.000
    S2       S        0.08318    0.16658    0.12894    1.000
    Mo3      Mo       0.41646    0.08330    0.05998    1.000
    S4       S        0.33295    0.16626    0.99093    1.000
    S5       S        0.33341    0.16698    0.12892    1.000
    Mo6      Mo       0.66637    0.08328    0.05996    1.000
    S7       S        0.58293    0.16634    0.99093    1.000
    S8       S        0.58323    0.16706    0.12892    1.000
    Mo9      Mo       0.91641    0.08313    0.06000    1.000
    S10      S        0.83308    0.16644    0.99103    1.000
    S11      S        0.83306    0.16658    0.12892    1.000
    Mo12     Mo       0.16644    0.33323    0.05989    1.000
    S13      S        0.08307    0.41654    0.99096    1.000
    S14      S        0.08305    0.41653    0.12888    1.000
    Mo15     Mo       0.41652    0.33333    0.05959    1.000
    S16      S        0.33287    0.41647    0.99077    1.000
    S17      S        0.33335    0.41659    0.12877    1.000
    Mo18     Mo       0.66641    0.33340    0.05960    1.000
    S19      S        0.58294    0.41633    0.99029    1.000
    S20      S        0.58341    0.41733    0.12798    1.000
    Mo21     Mo       0.91638    0.33320    0.05988    1.000
    S22      S        0.83316    0.41638    0.99074    1.000
    S23      S        0.83288    0.41668    0.12875    1.000
    Mo24     Mo       0.16639    0.58321    0.05993    1.000
    S25      S        0.08334    0.66665    0.99089    1.000
    S26      S        0.08270    0.66635    0.12884    1.000
    Mo27     Mo       0.41644    0.58320    0.05967    1.000
    S28      S        0.33293    0.66659    0.99093    1.000
    S29      S        0.33321    0.66638    0.12887    1.000
    Mo30     Mo       0.66654    0.58341    0.05904    1.000
    S31      S        0.58283    0.66686    0.99040    1.000
    S32      S        0.58342    0.66662    0.12824    1.000
    Mo33     Mo       0.91634    0.58314    0.05962    1.000
    S34      S        0.83359    0.66677    0.99036    1.000
    S35      S        0.83274    0.66618    0.12827    1.000
    Mo36     Mo       0.16634    0.83316    0.05995    1.000
    S37      S        0.08335    0.91670    0.99094    1.000
    S38      S        0.08281    0.91631    0.12890    1.000
    Mo39     Mo       0.41641    0.83318    0.05995    1.000
    S40      S        0.33307    0.91655    0.99104    1.000
    S41      S        0.33304    0.91650    0.12891    1.000
    Mo42     Mo       0.66634    0.83326    0.05960    1.000
    S43      S        0.58296    0.91681    0.99090    1.000
    S44      S        0.58315    0.91642    0.12884    1.000
    Mo45     Mo       0.91646    0.83303    0.05969    1.000
    S46      S        0.83325    0.91672    0.99087    1.000
    S47      S        0.83285    0.91597    0.12884    1.000
    C48      C        0.72745    0.50945    0.27584    1.000
    C49      C        0.72178    0.61346    0.27609    1.000
    C50      C        0.61263    0.60881    0.27691    1.000
    C51      C        0.50868    0.49930    0.27764    1.000
    C52      C        0.51332    0.39494    0.27783    1.000
    C53      C        0.62306    0.40076    0.27698    1.000
    H54      H        0.81279    0.51516    0.27482    1.000
    O55      O        0.82840    0.71933    0.27538    1.000
    H56      H        0.60899    0.68976    0.27698    1.000
    H57      H        0.42441    0.49606    0.27800    1.000
    H58      H        0.43272    0.31035    0.27821    1.000
    H59      H        0.62749    0.32034    0.27666    1.000
    H60      H        0.81379    0.78517    0.27445    1.000
