# CIF file generated by openbabel 3.1.0, see https://openbabel.org
data_I
_chemical_name_common ''
_cell_length_a 13.105
_cell_length_b 13.105
_cell_length_c 23.0122
_cell_angle_alpha 90
_cell_angle_beta 90
_cell_angle_gamma 120
loop_
    _atom_site_label
    _atom_site_type_symbol
    _atom_site_fract_x
    _atom_site_fract_y
    _atom_site_fract_z
    _atom_site_occupancy
    Mo0      Mo       0.16728    0.08366    0.05970    1.000
    S1       S        0.08388    0.16684    0.99071    1.000
    S2       S        0.08433    0.16749    0.12868    1.000
    Mo3      Mo       0.41723    0.08363    0.05970    1.000
    S4       S        0.33374    0.16662    0.99059    1.000
    S5       S        0.33414    0.16746    0.12859    1.000
    Mo6      Mo       0.66727    0.08365    0.05969    1.000
    S7       S        0.58377    0.16675    0.99066    1.000
    S8       S        0.58400    0.16724    0.12860    1.000
    Mo9      Mo       0.91729    0.08371    0.05975    1.000
    S10      S        0.83397    0.16696    0.99075    1.000
    S11      S        0.83396    0.16708    0.12863    1.000
    Mo12     Mo       0.16747    0.33387    0.05939    1.000
    S13      S        0.08394    0.41718    0.99061    1.000
    S14      S        0.08423    0.41694    0.12864    1.000
    Mo15     Mo       0.41741    0.33379    0.05917    1.000
    S16      S        0.33391    0.41706    0.99022    1.000
    S17      S        0.33438    0.41727    0.12793    1.000
    Mo18     Mo       0.66728    0.33369    0.05938    1.000
    S19      S        0.58417    0.41706    0.99025    1.000
    S20      S        0.58392    0.41705    0.12804    1.000
    Mo21     Mo       0.91740    0.33371    0.05966    1.000
    S22      S        0.83418    0.41715    0.99065    1.000
    S23      S        0.83373    0.41685    0.12862    1.000
    Mo24     Mo       0.16727    0.58363    0.05969    1.000
    S25      S        0.08390    0.66702    0.99079    1.000
    S26      S        0.08389    0.66688    0.12873    1.000
    Mo27     Mo       0.41740    0.58376    0.05923    1.000
    S28      S        0.33377    0.66719    0.99058    1.000
    S29      S        0.33408    0.66676    0.12861    1.000
    Mo30     Mo       0.66731    0.58370    0.05931    1.000
    S31      S        0.58414    0.66723    0.99030    1.000
    S32      S        0.58386    0.66685    0.12815    1.000
    Mo33     Mo       0.91725    0.58366    0.05973    1.000
    S34      S        0.83426    0.66720    0.99065    1.000
    S35      S        0.83357    0.66680    0.12867    1.000
    Mo36     Mo       0.16721    0.83363    0.05979    1.000
    S37      S        0.08386    0.91693    0.99081    1.000
    S38      S        0.08389    0.91703    0.12874    1.000
    Mo39     Mo       0.41720    0.83361    0.05971    1.000
    S40      S        0.33380    0.91692    0.99079    1.000
    S41      S        0.33392    0.91697    0.12872    1.000
    Mo42     Mo       0.66723    0.83361    0.05946    1.000
    S43      S        0.58378    0.91701    0.99068    1.000
    S44      S        0.58394    0.91682    0.12865    1.000
    Mo45     Mo       0.91723    0.83366    0.05976    1.000
    S46      S        0.83412    0.91710    0.99072    1.000
    S47      S        0.83368    0.91689    0.12869    1.000
    C48      C        0.43203    0.56119    0.27782    1.000
    C49      C        0.37342    0.43791    0.27547    1.000
    C50      C        0.43709    0.37815    0.27556    1.000
    C51      C        0.56026    0.44256    0.27839    1.000
    C52      C        0.61975    0.56569    0.28111    1.000
    C53      C        0.55499    0.62435    0.28074    1.000
    H54      H        0.38099    0.60551    0.27725    1.000
    O55      O        0.25089    0.37942    0.27264    1.000
    H56      H        0.39097    0.28260    0.27322    1.000
    H57      H        0.60929    0.39610    0.27822    1.000
    H58      H        0.71504    0.61523    0.28325    1.000
    H59      H        0.60027    0.71974    0.28234    1.000
    H60      H        0.22019    0.29501    0.26920    1.000
