# CIF file generated by openbabel 3.1.0, see https://openbabel.org
data_I
_chemical_name_common ''
_cell_length_a 13.105
_cell_length_b 13.105
_cell_length_c 23.0122
_cell_angle_alpha 90
_cell_angle_beta 90
_cell_angle_gamma 120
loop_
    _atom_site_label
    _atom_site_type_symbol
    _atom_site_fract_x
    _atom_site_fract_y
    _atom_site_fract_z
    _atom_site_occupancy
    Mo0      Mo       0.16843    0.08705    0.06027    1.000
    S1       S        0.08495    0.17029    0.99132    1.000
    S2       S        0.08507    0.17035    0.12922    1.000
    Mo3      Mo       0.41820    0.08711    0.06047    1.000
    S4       S        0.33492    0.17009    0.99126    1.000
    S5       S        0.33503    0.17073    0.12933    1.000
    Mo6      Mo       0.66827    0.08701    0.06036    1.000
    S7       S        0.58476    0.17013    0.99142    1.000
    S8       S        0.58512    0.17073    0.12939    1.000
    Mo9      Mo       0.91829    0.08696    0.06028    1.000
    S10      S        0.83488    0.17029    0.99137    1.000
    S11      S        0.83499    0.17036    0.12927    1.000
    Mo12     Mo       0.16831    0.33700    0.06023    1.000
    S13      S        0.08494    0.42034    0.99134    1.000
    S14      S        0.08493    0.42022    0.12926    1.000
    Mo15     Mo       0.41827    0.33701    0.06001    1.000
    S16      S        0.33481    0.42034    0.99117    1.000
    S17      S        0.33513    0.42031    0.12918    1.000
    Mo18     Mo       0.66833    0.33720    0.06008    1.000
    S19      S        0.58489    0.42018    0.99082    1.000
    S20      S        0.58508    0.42089    0.12847    1.000
    Mo21     Mo       0.91828    0.33702    0.06025    1.000
    S22      S        0.83507    0.42035    0.99121    1.000
    S23      S        0.83486    0.42042    0.12920    1.000
    Mo24     Mo       0.16825    0.58695    0.06037    1.000
    S25      S        0.08517    0.67039    0.99137    1.000
    S26      S        0.08471    0.67022    0.12931    1.000
    Mo27     Mo       0.41830    0.58699    0.06014    1.000
    S28      S        0.33479    0.67040    0.99138    1.000
    S29      S        0.33506    0.67017    0.12931    1.000
    Mo30     Mo       0.66839    0.58723    0.05971    1.000
    S31      S        0.58472    0.67053    0.99094    1.000
    S32      S        0.58514    0.67039    0.12887    1.000
    Mo33     Mo       0.91831    0.58705    0.06015    1.000
    S34      S        0.83539    0.67052    0.99092    1.000
    S35      S        0.83488    0.67050    0.12883    1.000
    Mo36     Mo       0.16826    0.83699    0.06038    1.000
    S37      S        0.08524    0.92044    0.99128    1.000
    S38      S        0.08478    0.92030    0.12923    1.000
    Mo39     Mo       0.41828    0.83700    0.06039    1.000
    S40      S        0.33496    0.92037    0.99149    1.000
    S41      S        0.33490    0.92036    0.12938    1.000
    Mo42     Mo       0.66823    0.83701    0.06008    1.000
    S43      S        0.58481    0.92048    0.99134    1.000
    S44      S        0.58506    0.92021    0.12928    1.000
    Mo45     Mo       0.91839    0.83705    0.06004    1.000
    S46      S        0.83499    0.92045    0.99120    1.000
    S47      S        0.83485    0.92004    0.12915    1.000
    C48      C        0.49710    0.42974    0.27630    1.000
    C49      C        0.56102    0.37027    0.27452    1.000
    C50      C        0.68446    0.43332    0.27436    1.000
    C51      C        0.74383    0.55663    0.27551    1.000
    C52      C        0.68092    0.61700    0.27685    1.000
    C53      C        0.55748    0.55283    0.27736    1.000
    H54      H        0.40170    0.37925    0.27623    1.000
    O55      O        0.49627    0.24778    0.27193    1.000
    H56      H        0.73352    0.38678    0.27273    1.000
    H57      H        0.83932    0.60517    0.27505    1.000
    H58      H        0.72730    0.71244    0.27736    1.000
    H59      H        0.50787    0.59870    0.27837    1.000
    H60      H        0.54945    0.21641    0.26863    1.000
