# CIF file generated by openbabel 3.1.0, see https://openbabel.org
data_I
_chemical_name_common ''
_cell_length_a 13.105
_cell_length_b 13.105
_cell_length_c 23.0122
_cell_angle_alpha 90
_cell_angle_beta 90
_cell_angle_gamma 120
loop_
    _atom_site_label
    _atom_site_type_symbol
    _atom_site_fract_x
    _atom_site_fract_y
    _atom_site_fract_z
    _atom_site_occupancy
    Mo0      Mo       0.16893    0.09022    0.06076    1.000
    S1       S        0.08577    0.17352    0.99173    1.000
    S2       S        0.08555    0.17357    0.12963    1.000
    Mo3      Mo       0.41892    0.09017    0.06084    1.000
    S4       S        0.33558    0.17342    0.99184    1.000
    S5       S        0.33582    0.17398    0.12983    1.000
    Mo6      Mo       0.66886    0.09019    0.06060    1.000
    S7       S        0.58525    0.17326    0.99166    1.000
    S8       S        0.58583    0.17391    0.12968    1.000
    Mo9      Mo       0.91893    0.09017    0.06055    1.000
    S10      S        0.83547    0.17341    0.99161    1.000
    S11      S        0.83556    0.17351    0.12949    1.000
    Mo12     Mo       0.16905    0.34025    0.06061    1.000
    S13      S        0.08563    0.42347    0.99163    1.000
    S14      S        0.08547    0.42343    0.12958    1.000
    Mo15     Mo       0.41905    0.34051    0.06048    1.000
    S16      S        0.33547    0.42342    0.99147    1.000
    S17      S        0.33587    0.42392    0.12952    1.000
    Mo18     Mo       0.66891    0.34029    0.06032    1.000
    S19      S        0.58535    0.42331    0.99115    1.000
    S20      S        0.58619    0.42446    0.12878    1.000
    Mo21     Mo       0.91887    0.34014    0.06048    1.000
    S22      S        0.83553    0.42337    0.99140    1.000
    S23      S        0.83548    0.42358    0.12942    1.000
    Mo24     Mo       0.16882    0.59008    0.06064    1.000
    S25      S        0.08578    0.67352    0.99159    1.000
    S26      S        0.08516    0.67328    0.12953    1.000
    Mo27     Mo       0.41884    0.59016    0.06033    1.000
    S28      S        0.33532    0.67356    0.99160    1.000
    S29      S        0.33565    0.67330    0.12957    1.000
    Mo30     Mo       0.66906    0.59047    0.05988    1.000
    S31      S        0.58530    0.67367    0.99109    1.000
    S32      S        0.58581    0.67362    0.12900    1.000
    Mo33     Mo       0.91884    0.59015    0.06031    1.000
    S34      S        0.83593    0.67363    0.99103    1.000
    S35      S        0.83539    0.67367    0.12895    1.000
    Mo36     Mo       0.16888    0.84013    0.06063    1.000
    S37      S        0.08609    0.92386    0.99155    1.000
    S38      S        0.08519    0.92323    0.12951    1.000
    Mo39     Mo       0.41884    0.84012    0.06066    1.000
    S40      S        0.33562    0.92364    0.99180    1.000
    S41      S        0.33544    0.92332    0.12968    1.000
    Mo42     Mo       0.66887    0.84024    0.06021    1.000
    S43      S        0.58531    0.92365    0.99154    1.000
    S44      S        0.58568    0.92336    0.12949    1.000
    Mo45     Mo       0.91898    0.84023    0.06015    1.000
    S46      S        0.83567    0.92377    0.99134    1.000
    S47      S        0.83543    0.92317    0.12931    1.000
    C48      C        0.55414    0.53293    0.27220    1.000
    C49      C        0.49674    0.40964    0.27412    1.000
    C50      C        0.56184    0.35146    0.27671    1.000
    C51      C        0.68505    0.41716    0.27665    1.000
    C52      C        0.74336    0.54031    0.27431    1.000
    C53      C        0.67726    0.59755    0.27233    1.000
    H54      H        0.50203    0.57604    0.27022    1.000
    O55      O        0.37408    0.34932    0.27265    1.000
    H56      H        0.51663    0.25591    0.27821    1.000
    H57      H        0.73503    0.37173    0.27801    1.000
    H58      H        0.83874    0.59087    0.27416    1.000
    H59      H        0.72162    0.69291    0.27046    1.000
    H60      H        0.34445    0.26483    0.27242    1.000
