# CIF file generated by openbabel 3.1.0, see https://openbabel.org
data_I
_chemical_name_common ''
_cell_length_a 13.105
_cell_length_b 13.105
_cell_length_c 23.0122
_cell_angle_alpha 90
_cell_angle_beta 90
_cell_angle_gamma 120
loop_
    _atom_site_label
    _atom_site_type_symbol
    _atom_site_fract_x
    _atom_site_fract_y
    _atom_site_fract_z
    _atom_site_occupancy
    Mo0      Mo       0.16722    0.08303    0.05957    1.000
    S1       S        0.08375    0.16617    0.99055    1.000
    S2       S        0.08407    0.16663    0.12852    1.000
    Mo3      Mo       0.41718    0.08292    0.05956    1.000
    S4       S        0.33378    0.16611    0.99052    1.000
    S5       S        0.33396    0.16655    0.12851    1.000
    Mo6      Mo       0.66719    0.08299    0.05952    1.000
    S7       S        0.58384    0.16635    0.99061    1.000
    S8       S        0.58383    0.16632    0.12850    1.000
    Mo9      Mo       0.91720    0.08308    0.05959    1.000
    S10      S        0.83388    0.16638    0.99060    1.000
    S11      S        0.83383    0.16639    0.12852    1.000
    Mo12     Mo       0.16730    0.33301    0.05928    1.000
    S13      S        0.08376    0.41628    0.99044    1.000
    S14      S        0.08421    0.41654    0.12842    1.000
    Mo15     Mo       0.41720    0.33298    0.05926    1.000
    S16      S        0.33370    0.41592    0.99006    1.000
    S17      S        0.33408    0.41657    0.12785    1.000
    Mo18     Mo       0.66716    0.33304    0.05953    1.000
    S19      S        0.58397    0.41632    0.99044    1.000
    S20      S        0.58368    0.41651    0.12845    1.000
    Mo21     Mo       0.91722    0.33304    0.05952    1.000
    S22      S        0.83389    0.41642    0.99063    1.000
    S23      S        0.83385    0.41633    0.12852    1.000
    Mo24     Mo       0.16739    0.58307    0.05926    1.000
    S25      S        0.08385    0.66648    0.99058    1.000
    S26      S        0.08424    0.66629    0.12857    1.000
    Mo27     Mo       0.41733    0.58298    0.05885    1.000
    S28      S        0.33380    0.66653    0.99004    1.000
    S29      S        0.33427    0.66621    0.12776    1.000
    Mo30     Mo       0.66726    0.58307    0.05930    1.000
    S31      S        0.58438    0.66658    0.99009    1.000
    S32      S        0.58369    0.66624    0.12795    1.000
    Mo33     Mo       0.91727    0.58303    0.05961    1.000
    S34      S        0.83415    0.66644    0.99056    1.000
    S35      S        0.83370    0.66632    0.12852    1.000
    Mo36     Mo       0.16736    0.83310    0.05961    1.000
    S37      S        0.08392    0.91637    0.99064    1.000
    S38      S        0.08394    0.91640    0.12851    1.000
    Mo39     Mo       0.41721    0.83303    0.05926    1.000
    S40      S        0.33378    0.91644    0.99050    1.000
    S41      S        0.33405    0.91617    0.12855    1.000
    Mo42     Mo       0.66723    0.83300    0.05930    1.000
    S43      S        0.58399    0.91652    0.99042    1.000
    S44      S        0.58368    0.91604    0.12844    1.000
    Mo45     Mo       0.91726    0.83305    0.05958    1.000
    S46      S        0.83410    0.91651    0.99056    1.000
    S47      S        0.83363    0.91621    0.12851    1.000
    C48      C        0.46941    0.70417    0.27807    1.000
    C49      C        0.34611    0.63951    0.27568    1.000
    C50      C        0.28624    0.51607    0.27626    1.000
    C51      C        0.35063    0.45733    0.27962    1.000
    C52      C        0.47378    0.52100    0.28227    1.000
    C53      C        0.53255    0.64442    0.28146    1.000
    H54      H        0.51368    0.79953    0.27722    1.000
    O55      O        0.28783    0.70370    0.27212    1.000
    H56      H        0.19072    0.46667    0.27379    1.000
    H57      H        0.30421    0.36184    0.27979    1.000
    H58      H        0.52330    0.47525    0.28475    1.000
    H59      H        0.62796    0.69453    0.28317    1.000
    H60      H        0.20338    0.65015    0.26866    1.000
