# CIF file generated by openbabel 3.1.0, see https://openbabel.org
data_I
_chemical_name_common ''
_cell_length_a 13.105
_cell_length_b 13.105
_cell_length_c 23.0122
_cell_angle_alpha 90
_cell_angle_beta 90
_cell_angle_gamma 120
loop_
    _atom_site_label
    _atom_site_type_symbol
    _atom_site_fract_x
    _atom_site_fract_y
    _atom_site_fract_z
    _atom_site_occupancy
    C0       C        0.50106    0.59317    0.46875    1.000
    C1       C        0.39548    0.48519    0.46873    1.000
    C2       C        0.39678    0.37902    0.46877    1.000
    C3       C        0.50464    0.38127    0.46871    1.000
    C4       C        0.61065    0.48859    0.46868    1.000
    C5       C        0.60814    0.59420    0.46874    1.000
    H6       H        0.49796    0.67416    0.46877    1.000
    O7       O        0.29107    0.48892    0.46868    1.000
    H8       H        0.31455    0.29571    0.46887    1.000
    H9       H        0.50520    0.29892    0.46872    1.000
    H10      H        0.69391    0.49001    0.46861    1.000
    H11      H        0.68977    0.67781    0.46881    1.000
    H12      H        0.22440    0.40905    0.46846    1.000
