# CIF file generated by openbabel 3.1.0, see https://openbabel.org
data_I
_chemical_name_common ''
_cell_length_a 13.105
_cell_length_b 13.105
_cell_length_c 23.0122
_cell_angle_alpha 90
_cell_angle_beta 90
_cell_angle_gamma 120
loop_
    _atom_site_label
    _atom_site_type_symbol
    _atom_site_fract_x
    _atom_site_fract_y
    _atom_site_fract_z
    _atom_site_occupancy
    Mo0      Mo       0.16542    0.08010    0.06656    1.000
    S1       S        0.08196    0.16323    0.99754    1.000
    S2       S        0.08212    0.16355    0.13549    1.000
    Mo3      Mo       0.41542    0.08000    0.06658    1.000
    S4       S        0.33203    0.16324    0.99756    1.000
    S5       S        0.33217    0.16352    0.13550    1.000
    Mo6      Mo       0.66540    0.08003    0.06652    1.000
    S7       S        0.58200    0.16325    0.99755    1.000
    S8       S        0.58215    0.16346    0.13549    1.000
    Mo9      Mo       0.91536    0.08000    0.06658    1.000
    S10      S        0.83201    0.16324    0.99755    1.000
    S11      S        0.83209    0.16349    0.13548    1.000
    Mo12     Mo       0.16528    0.33000    0.06638    1.000
    S13      S        0.08200    0.41327    0.99735    1.000
    S14      S        0.08218    0.41354    0.13534    1.000
    Mo15     Mo       0.41550    0.33001    0.06640    1.000
    S16      S        0.33214    0.41347    0.99751    1.000
    S17      S        0.33194    0.41315    0.13525    1.000
    Mo18     Mo       0.66541    0.33005    0.06643    1.000
    S19      S        0.58205    0.41328    0.99739    1.000
    S20      S        0.58213    0.41349    0.13539    1.000
    Mo21     Mo       0.91542    0.33006    0.06641    1.000
    S22      S        0.83206    0.41338    0.99745    1.000
    S23      S        0.83215    0.41348    0.13535    1.000
    Mo24     Mo       0.16542    0.58003    0.06623    1.000
    S25      S        0.08217    0.66364    0.99740    1.000
    S26      S        0.08214    0.66326    0.13536    1.000
    Mo27     Mo       0.41551    0.58019    0.06653    1.000
    S28      S        0.33227    0.66351    0.99743    1.000
    S29      S        0.33132    0.66287    0.13535    1.000
    Mo30     Mo       0.66542    0.58000    0.06630    1.000
    S31      S        0.58214    0.66348    0.99749    1.000
    S32      S        0.58237    0.66287    0.13539    1.000
    Mo33     Mo       0.91547    0.58012    0.06638    1.000
    S34      S        0.83223    0.66362    0.99744    1.000
    S35      S        0.83198    0.66325    0.13540    1.000
    Mo36     Mo       0.16546    0.83007    0.06654    1.000
    S37      S        0.08211    0.91347    0.99762    1.000
    S38      S        0.08209    0.91339    0.13551    1.000
    Mo39     Mo       0.41524    0.82978    0.06665    1.000
    S40      S        0.33217    0.91335    0.99763    1.000
    S41      S        0.33207    0.91329    0.13560    1.000
    Mo42     Mo       0.66535    0.82978    0.06668    1.000
    S43      S        0.58199    0.91315    0.99771    1.000
    S44      S        0.58211    0.91346    0.13556    1.000
    Mo45     Mo       0.91539    0.83007    0.06656    1.000
    S46      S        0.83194    0.91333    0.99765    1.000
    S47      S        0.83203    0.91331    0.13563    1.000
    C48      C        0.40381    0.54373    0.29575    1.000
    C49      C        0.46297    0.66567    0.30503    1.000
    C50      C        0.48902    0.71159    0.36146    1.000
    C51      C        0.45567    0.63475    0.40888    1.000
    C52      C        0.39667    0.51279    0.40019    1.000
    C53      C        0.37091    0.46790    0.34352    1.000
    H54      H        0.38414    0.50980    0.25180    1.000
    O55      O        0.49381    0.73790    0.25601    1.000
    H56      H        0.53471    0.80619    0.36817    1.000
    H57      H        0.47578    0.67052    0.45251    1.000
    H58      H        0.37114    0.45362    0.43701    1.000
    H59      H        0.32498    0.37354    0.33635    1.000
    H60      H        0.53384    0.82027    0.26773    1.000
