# CIF file generated by openbabel 3.1.0, see https://openbabel.org
data_I
_chemical_name_common ''
_cell_length_a 13.105
_cell_length_b 13.105
_cell_length_c 23.0122
_cell_angle_alpha 90
_cell_angle_beta 90
_cell_angle_gamma 120
loop_
    _atom_site_label
    _atom_site_type_symbol
    _atom_site_fract_x
    _atom_site_fract_y
    _atom_site_fract_z
    _atom_site_occupancy
    Mo0      Mo       0.16847    0.08224    0.06240    1.000
    S1       S        0.08517    0.16562    0.99346    1.000
    S2       S        0.08514    0.16557    0.13136    1.000
    Mo3      Mo       0.41845    0.08220    0.06241    1.000
    S4       S        0.33506    0.16546    0.99342    1.000
    S5       S        0.33517    0.16568    0.13133    1.000
    Mo6      Mo       0.66840    0.08208    0.06238    1.000
    S7       S        0.58503    0.16536    0.99341    1.000
    S8       S        0.58513    0.16554    0.13132    1.000
    Mo9      Mo       0.91847    0.08222    0.06238    1.000
    S10      S        0.83513    0.16555    0.99345    1.000
    S11      S        0.83506    0.16546    0.13135    1.000
    Mo12     Mo       0.16854    0.33227    0.06242    1.000
    S13      S        0.08515    0.41556    0.99349    1.000
    S14      S        0.08516    0.41555    0.13141    1.000
    Mo15     Mo       0.41845    0.33224    0.06230    1.000
    S16      S        0.33505    0.41551    0.99336    1.000
    S17      S        0.33538    0.41576    0.13135    1.000
    Mo18     Mo       0.66843    0.33212    0.06227    1.000
    S19      S        0.58497    0.41519    0.99319    1.000
    S20      S        0.58524    0.41577    0.13113    1.000
    Mo21     Mo       0.91847    0.33218    0.06241    1.000
    S22      S        0.83521    0.41547    0.99338    1.000
    S23      S        0.83504    0.41553    0.13128    1.000
    Mo24     Mo       0.16853    0.58222    0.06244    1.000
    S25      S        0.08530    0.66558    0.99345    1.000
    S26      S        0.08512    0.66554    0.13137    1.000
    Mo27     Mo       0.41867    0.58223    0.06223    1.000
    S28      S        0.33512    0.66558    0.99344    1.000
    S29      S        0.33535    0.66548    0.13138    1.000
    Mo30     Mo       0.66848    0.58215    0.06190    1.000
    S31      S        0.58508    0.66552    0.99296    1.000
    S32      S        0.58553    0.66536    0.13071    1.000
    Mo33     Mo       0.91854    0.58220    0.06231    1.000
    S34      S        0.83547    0.66564    0.99321    1.000
    S35      S        0.83487    0.66546    0.13114    1.000
    Mo36     Mo       0.16850    0.83222    0.06242    1.000
    S37      S        0.08528    0.91563    0.99342    1.000
    S38      S        0.08501    0.91551    0.13131    1.000
    Mo39     Mo       0.41854    0.83219    0.06243    1.000
    S40      S        0.33514    0.91552    0.99349    1.000
    S41      S        0.33518    0.91553    0.13141    1.000
    Mo42     Mo       0.66844    0.83206    0.06213    1.000
    S43      S        0.58500    0.91552    0.99336    1.000
    S44      S        0.58524    0.91528    0.13135    1.000
    Mo45     Mo       0.91847    0.83224    0.06226    1.000
    S46      S        0.83528    0.91571    0.99331    1.000
    S47      S        0.83490    0.91531    0.13126    1.000
    C48      C        0.40318    0.68068    0.31269    1.000
    C49      C        0.51000    0.68203    0.31940    1.000
    C50      C        0.55203    0.67787    0.37475    1.000
    C51      C        0.48635    0.67236    0.42380    1.000
    C52      C        0.37950    0.67095    0.41768    1.000
    C53      C        0.33848    0.67512    0.36202    1.000
    H54      H        0.37242    0.68379    0.26937    1.000
    O55      O        0.57114    0.68776    0.26875    1.000
    H56      H        0.63501    0.67906    0.37940    1.000
    H57      H        0.51902    0.66913    0.46660    1.000
    H58      H        0.32886    0.66660    0.45569    1.000
    H59      H        0.25574    0.67396    0.35690    1.000
    H60      H        0.64212    0.68534    0.27852    1.000
