# CIF file generated by openbabel 3.1.0, see https://openbabel.org
data_I
_chemical_name_common ''
_cell_length_a 13.105
_cell_length_b 13.105
_cell_length_c 23.0122
_cell_angle_alpha 90
_cell_angle_beta 90
_cell_angle_gamma 120
loop_
    _atom_site_label
    _atom_site_type_symbol
    _atom_site_fract_x
    _atom_site_fract_y
    _atom_site_fract_z
    _atom_site_occupancy
    Mo0      Mo       0.16493    0.07964    0.06742    1.000
    S1       S        0.08148    0.16277    0.99840    1.000
    S2       S        0.08153    0.16300    0.13632    1.000
    Mo3      Mo       0.41490    0.07953    0.06741    1.000
    S4       S        0.33152    0.16280    0.99841    1.000
    S5       S        0.33168    0.16300    0.13632    1.000
    Mo6      Mo       0.66492    0.07963    0.06742    1.000
    S7       S        0.58159    0.16299    0.99848    1.000
    S8       S        0.58158    0.16294    0.13637    1.000
    Mo9      Mo       0.91485    0.07953    0.06741    1.000
    S10      S        0.83162    0.16297    0.99847    1.000
    S11      S        0.83161    0.16298    0.13636    1.000
    Mo12     Mo       0.16466    0.32948    0.06724    1.000
    S13      S        0.08150    0.41304    0.99837    1.000
    S14      S        0.08171    0.41299    0.13634    1.000
    Mo15     Mo       0.41499    0.32951    0.06726    1.000
    S16      S        0.33159    0.41299    0.99838    1.000
    S17      S        0.33127    0.41244    0.13608    1.000
    Mo18     Mo       0.66486    0.32964    0.06745    1.000
    S19      S        0.58169    0.41297    0.99837    1.000
    S20      S        0.58146    0.41306    0.13635    1.000
    Mo21     Mo       0.91494    0.32966    0.06742    1.000
    S22      S        0.83148    0.41287    0.99850    1.000
    S23      S        0.83155    0.41295    0.13638    1.000
    Mo24     Mo       0.16493    0.57961    0.06739    1.000
    S25      S        0.08161    0.66296    0.99844    1.000
    S26      S        0.08157    0.66290    0.13636    1.000
    Mo27     Mo       0.41490    0.57960    0.06740    1.000
    S28      S        0.33165    0.66299    0.99848    1.000
    S29      S        0.33147    0.66283    0.13641    1.000
    Mo30     Mo       0.66496    0.57959    0.06732    1.000
    S31      S        0.58153    0.66298    0.99843    1.000
    S32      S        0.58172    0.66283    0.13629    1.000
    Mo33     Mo       0.91491    0.57961    0.06739    1.000
    S34      S        0.83166    0.66302    0.99840    1.000
    S35      S        0.83156    0.66291    0.13634    1.000
    Mo36     Mo       0.16491    0.82958    0.06742    1.000
    S37      S        0.08157    0.91298    0.99850    1.000
    S38      S        0.08156    0.91296    0.13637    1.000
    Mo39     Mo       0.41488    0.82956    0.06747    1.000
    S40      S        0.33157    0.91285    0.99848    1.000
    S41      S        0.33156    0.91289    0.13642    1.000
    Mo42     Mo       0.66486    0.82958    0.06742    1.000
    S43      S        0.58152    0.91292    0.99849    1.000
    S44      S        0.58156    0.91291    0.13643    1.000
    Mo45     Mo       0.91485    0.82960    0.06742    1.000
    S46      S        0.83147    0.91288    0.99848    1.000
    S47      S        0.83146    0.91288    0.13641    1.000
    C48      C        0.47352    0.68003    0.39746    1.000
    C49      C        0.41429    0.55722    0.39184    1.000
    C50      C        0.38946    0.50480    0.33679    1.000
    C51      C        0.42441    0.57610    0.28719    1.000
    C52      C        0.48377    0.69891    0.29224    1.000
    C53      C        0.50797    0.75021    0.34760    1.000
    H54      H        0.49181    0.71858    0.44046    1.000
    O55      O        0.38230    0.49162    0.44300    1.000
    H56      H        0.34361    0.40953    0.33271    1.000
    H57      H        0.40501    0.53486    0.24475    1.000
    H58      H        0.51074    0.75385    0.25376    1.000
    H59      H        0.55402    0.84521    0.35208    1.000
    H60      H        0.34115    0.40809    0.43369    1.000
