# CIF file generated by openbabel 3.1.0, see https://openbabel.org
data_I
_chemical_name_common ''
_cell_length_a 13.105
_cell_length_b 13.105
_cell_length_c 23.0122
_cell_angle_alpha 90
_cell_angle_beta 90
_cell_angle_gamma 120
loop_
    _atom_site_label
    _atom_site_type_symbol
    _atom_site_fract_x
    _atom_site_fract_y
    _atom_site_fract_z
    _atom_site_occupancy
    Mo0      Mo       0.16671    0.08256    0.06536    1.000
    S1       S        0.08340    0.16592    0.99640    1.000
    S2       S        0.08341    0.16593    0.13433    1.000
    Mo3      Mo       0.41674    0.08259    0.06537    1.000
    S4       S        0.33336    0.16587    0.99639    1.000
    S5       S        0.33340    0.16596    0.13432    1.000
    Mo6      Mo       0.66667    0.08248    0.06540    1.000
    S7       S        0.58342    0.16583    0.99641    1.000
    S8       S        0.58342    0.16593    0.13433    1.000
    Mo9      Mo       0.91673    0.08262    0.06535    1.000
    S10      S        0.83330    0.16590    0.99643    1.000
    S11      S        0.83336    0.16590    0.13435    1.000
    Mo12     Mo       0.16677    0.33259    0.06536    1.000
    S13      S        0.08333    0.41573    0.99634    1.000
    S14      S        0.08350    0.41600    0.13430    1.000
    Mo15     Mo       0.41666    0.33258    0.06531    1.000
    S16      S        0.33322    0.41565    0.99626    1.000
    S17      S        0.33355    0.41619    0.13428    1.000
    Mo18     Mo       0.66670    0.33255    0.06531    1.000
    S19      S        0.58322    0.41565    0.99624    1.000
    S20      S        0.58338    0.41603    0.13420    1.000
    Mo21     Mo       0.91673    0.33257    0.06536    1.000
    S22      S        0.83346    0.41599    0.99639    1.000
    S23      S        0.83337    0.41595    0.13429    1.000
    Mo24     Mo       0.16665    0.58249    0.06520    1.000
    S25      S        0.08336    0.66594    0.99635    1.000
    S26      S        0.08352    0.66584    0.13431    1.000
    Mo27     Mo       0.41669    0.58246    0.06504    1.000
    S28      S        0.33330    0.66595    0.99618    1.000
    S29      S        0.33344    0.66584    0.13389    1.000
    Mo30     Mo       0.66679    0.58246    0.06506    1.000
    S31      S        0.58349    0.66596    0.99610    1.000
    S32      S        0.58351    0.66581    0.13375    1.000
    Mo33     Mo       0.91678    0.58263    0.06535    1.000
    S34      S        0.83357    0.66594    0.99627    1.000
    S35      S        0.83317    0.66583    0.13423    1.000
    Mo36     Mo       0.16675    0.83253    0.06535    1.000
    S37      S        0.08340    0.91589    0.99639    1.000
    S38      S        0.08330    0.91582    0.13428    1.000
    Mo39     Mo       0.41678    0.83265    0.06519    1.000
    S40      S        0.33334    0.91602    0.99634    1.000
    S41      S        0.33346    0.91583    0.13430    1.000
    Mo42     Mo       0.66675    0.83268    0.06513    1.000
    S43      S        0.58344    0.91611    0.99626    1.000
    S44      S        0.58323    0.91557    0.13431    1.000
    Mo45     Mo       0.91664    0.83253    0.06529    1.000
    S46      S        0.83355    0.91608    0.99629    1.000
    S47      S        0.83322    0.91583    0.13424    1.000
    C48      C        0.40380    0.67290    0.40473    1.000
    C49      C        0.51048    0.67311    0.40022    1.000
    C50      C        0.55935    0.67632    0.34568    1.000
    C51      C        0.50096    0.67977    0.29544    1.000
    C52      C        0.39449    0.67981    0.29945    1.000
    C53      C        0.34635    0.67617    0.35427    1.000
    H54      H        0.36766    0.67019    0.44737    1.000
    O55      O        0.56393    0.66997    0.45199    1.000
    H56      H        0.64188    0.67609    0.34245    1.000
    H57      H        0.53902    0.68229    0.25330    1.000
    H58      H        0.34959    0.68247    0.26048    1.000
    H59      H        0.26382    0.67597    0.35783    1.000
    H60      H        0.63744    0.67176    0.44349    1.000
