# CIF file generated by openbabel 3.1.0, see https://openbabel.org
data_I
_chemical_name_common ''
_cell_length_a 13.105
_cell_length_b 13.105
_cell_length_c 23.0122
_cell_angle_alpha 90
_cell_angle_beta 90
_cell_angle_gamma 120
loop_
    _atom_site_label
    _atom_site_type_symbol
    _atom_site_fract_x
    _atom_site_fract_y
    _atom_site_fract_z
    _atom_site_occupancy
    Mo0      Mo       0.16895    0.08505    0.06872    1.000
    S1       S        0.08562    0.16848    0.99985    1.000
    S2       S        0.08559    0.16829    0.13775    1.000
    Mo3      Mo       0.41906    0.08506    0.06870    1.000
    S4       S        0.33561    0.16832    0.99975    1.000
    S5       S        0.33562    0.16825    0.13766    1.000
    Mo6      Mo       0.66909    0.08511    0.06874    1.000
    S7       S        0.58577    0.16838    0.99974    1.000
    S8       S        0.58573    0.16837    0.13766    1.000
    Mo9      Mo       0.91898    0.08504    0.06880    1.000
    S10      S        0.83581    0.16847    0.99983    1.000
    S11      S        0.83571    0.16846    0.13774    1.000
    Mo12     Mo       0.16884    0.33504    0.06887    1.000
    S13      S        0.08567    0.41842    0.99984    1.000
    S14      S        0.08558    0.41854    0.13775    1.000
    Mo15     Mo       0.41888    0.33492    0.06870    1.000
    S16      S        0.33542    0.41829    0.99986    1.000
    S17      S        0.33575    0.41845    0.13780    1.000
    Mo18     Mo       0.66904    0.33501    0.06869    1.000
    S19      S        0.58550    0.41826    0.99972    1.000
    S20      S        0.58556    0.41821    0.13761    1.000
    Mo21     Mo       0.91900    0.33513    0.06877    1.000
    S22      S        0.83563    0.41823    0.99968    1.000
    S23      S        0.83565    0.41852    0.13766    1.000
    Mo24     Mo       0.16897    0.58515    0.06873    1.000
    S25      S        0.08576    0.66849    0.99968    1.000
    S26      S        0.08553    0.66845    0.13761    1.000
    Mo27     Mo       0.41891    0.58513    0.06869    1.000
    S28      S        0.33563    0.66848    0.99978    1.000
    S29      S        0.33564    0.66851    0.13769    1.000
    Mo30     Mo       0.66885    0.58502    0.06861    1.000
    S31      S        0.58549    0.66835    0.99969    1.000
    S32      S        0.58562    0.66857    0.13758    1.000
    Mo33     Mo       0.91898    0.58500    0.06851    1.000
    S34      S        0.83541    0.66832    0.99956    1.000
    S35      S        0.83590    0.66852    0.13732    1.000
    Mo36     Mo       0.16898    0.83513    0.06867    1.000
    S37      S        0.08568    0.91850    0.99968    1.000
    S38      S        0.08553    0.91836    0.13762    1.000
    Mo39     Mo       0.41905    0.83517    0.06873    1.000
    S40      S        0.33571    0.91843    0.99974    1.000
    S41      S        0.33565    0.91844    0.13765    1.000
    Mo42     Mo       0.66902    0.83518    0.06868    1.000
    S43      S        0.58572    0.91851    0.99974    1.000
    S44      S        0.58572    0.91850    0.13769    1.000
    Mo45     Mo       0.91895    0.83518    0.06855    1.000
    S46      S        0.83562    0.91858    0.99971    1.000
    S47      S        0.83559    0.91828    0.13770    1.000
    C48      C        0.67908    0.59042    0.28810    1.000
    C49      C        0.70713    0.61716    0.34580    1.000
    N50      N        0.60597    0.58236    0.37867    1.000
    C51      C        0.51747    0.53499    0.34124    1.000
    N52      N        0.55691    0.53753    0.28543    1.000
    H53      H        0.73205    0.60350    0.25012    1.000
    H54      H        0.79300    0.65871    0.36571    1.000
    H55      H        0.42542    0.49819    0.35138    1.000
    H56      H        0.50685    0.50705    0.24920    1.000
