# CIF file generated by openbabel 3.1.0, see https://openbabel.org
data_I
_chemical_name_common ''
_cell_length_a 13.105
_cell_length_b 13.105
_cell_length_c 23.0122
_cell_angle_alpha 90
_cell_angle_beta 90
_cell_angle_gamma 120
loop_
    _atom_site_label
    _atom_site_type_symbol
    _atom_site_fract_x
    _atom_site_fract_y
    _atom_site_fract_z
    _atom_site_occupancy
    Mo0      Mo       0.16578    0.08217    0.06815    1.000
    S1       S        0.08236    0.16542    0.99918    1.000
    S2       S        0.08242    0.16549    0.13711    1.000
    Mo3      Mo       0.41573    0.08219    0.06811    1.000
    S4       S        0.33236    0.16550    0.99915    1.000
    S5       S        0.33242    0.16558    0.13709    1.000
    Mo6      Mo       0.66577    0.08221    0.06813    1.000
    S7       S        0.58242    0.16554    0.99916    1.000
    S8       S        0.58237    0.16549    0.13707    1.000
    Mo9      Mo       0.91576    0.08220    0.06816    1.000
    S10      S        0.83243    0.16552    0.99919    1.000
    S11      S        0.83237    0.16545    0.13714    1.000
    Mo12     Mo       0.16568    0.33212    0.06811    1.000
    S13      S        0.08225    0.41533    0.99916    1.000
    S14      S        0.08241    0.41546    0.13709    1.000
    Mo15     Mo       0.41554    0.33217    0.06806    1.000
    S16      S        0.33219    0.41530    0.99902    1.000
    S17      S        0.33239    0.41566    0.13704    1.000
    Mo18     Mo       0.66591    0.33215    0.06810    1.000
    S19      S        0.58245    0.41549    0.99911    1.000
    S20      S        0.58251    0.41570    0.13687    1.000
    Mo21     Mo       0.91572    0.33210    0.06818    1.000
    S22      S        0.83247    0.41540    0.99916    1.000
    S23      S        0.83248    0.41551    0.13712    1.000
    Mo24     Mo       0.16580    0.58206    0.06808    1.000
    S25      S        0.08253    0.66546    0.99914    1.000
    S26      S        0.08256    0.66544    0.13705    1.000
    Mo27     Mo       0.41572    0.58212    0.06783    1.000
    S28      S        0.33234    0.66548    0.99901    1.000
    S29      S        0.33255    0.66540    0.13699    1.000
    Mo30     Mo       0.66607    0.58250    0.06783    1.000
    S31      S        0.58262    0.66569    0.99881    1.000
    S32      S        0.58242    0.66570    0.13646    1.000
    Mo33     Mo       0.91585    0.58213    0.06809    1.000
    S34      S        0.83283    0.66569    0.99905    1.000
    S35      S        0.83258    0.66560    0.13705    1.000
    Mo36     Mo       0.16586    0.83214    0.06811    1.000
    S37      S        0.08260    0.91556    0.99916    1.000
    S38      S        0.08257    0.91549    0.13708    1.000
    Mo39     Mo       0.41578    0.83212    0.06804    1.000
    S40      S        0.33246    0.91552    0.99913    1.000
    S41      S        0.33251    0.91544    0.13705    1.000
    Mo42     Mo       0.66595    0.83240    0.06787    1.000
    S43      S        0.58247    0.91572    0.99905    1.000
    S44      S        0.58246    0.91545    0.13702    1.000
    Mo45     Mo       0.91594    0.83227    0.06810    1.000
    S46      S        0.83276    0.91576    0.99908    1.000
    S47      S        0.83244    0.91549    0.13708    1.000
    C48      C        0.60862    0.65078    0.29590    1.000
    C49      C        0.59526    0.65521    0.35495    1.000
    N50      N        0.57318    0.55038    0.38098    1.000
    C51      C        0.57314    0.48307    0.33806    1.000
    N52      N        0.59420    0.53972    0.28525    1.000
    H53      H        0.62583    0.71297    0.26155    1.000
    H54      H        0.60014    0.72670    0.38022    1.000
    H55      H        0.55879    0.39495    0.34223    1.000
    H56      H        0.59832    0.50672    0.24611    1.000
