# CIF file generated by openbabel 3.1.0, see https://openbabel.org
data_I
_chemical_name_common ''
_cell_length_a 13.105
_cell_length_b 13.105
_cell_length_c 23.0122
_cell_angle_alpha 90
_cell_angle_beta 90
_cell_angle_gamma 120
loop_
    _atom_site_label
    _atom_site_type_symbol
    _atom_site_fract_x
    _atom_site_fract_y
    _atom_site_fract_z
    _atom_site_occupancy
    Mo0      Mo       0.16585    0.08285    0.06400    1.000
    S1       S        0.08231    0.16583    0.99497    1.000
    S2       S        0.08286    0.16669    0.13293    1.000
    Mo3      Mo       0.41578    0.08279    0.06404    1.000
    S4       S        0.33237    0.16583    0.99492    1.000
    S5       S        0.33271    0.16663    0.13286    1.000
    Mo6      Mo       0.66579    0.08283    0.06407    1.000
    S7       S        0.58244    0.16614    0.99510    1.000
    S8       S        0.58247    0.16628    0.13300    1.000
    Mo9      Mo       0.91578    0.08280    0.06408    1.000
    S10      S        0.83245    0.16608    0.99511    1.000
    S11      S        0.83251    0.16624    0.13301    1.000
    Mo12     Mo       0.16599    0.33298    0.06354    1.000
    S13      S        0.08240    0.41637    0.99487    1.000
    S14      S        0.08279    0.41604    0.13284    1.000
    Mo15     Mo       0.41602    0.33296    0.06354    1.000
    S16      S        0.33272    0.41638    0.99443    1.000
    S17      S        0.33263    0.41630    0.13195    1.000
    Mo18     Mo       0.66580    0.33292    0.06397    1.000
    S19      S        0.58291    0.41643    0.99488    1.000
    S20      S        0.58217    0.41599    0.13293    1.000
    Mo21     Mo       0.91586    0.33287    0.06397    1.000
    S22      S        0.83255    0.41629    0.99510    1.000
    S23      S        0.83244    0.41611    0.13301    1.000
    Mo24     Mo       0.16595    0.58287    0.06399    1.000
    S25      S        0.08246    0.66623    0.99515    1.000
    S26      S        0.08256    0.66604    0.13306    1.000
    Mo27     Mo       0.41600    0.58303    0.06366    1.000
    S28      S        0.33247    0.66645    0.99491    1.000
    S29      S        0.33271    0.66607    0.13290    1.000
    Mo30     Mo       0.66563    0.58277    0.06410    1.000
    S31      S        0.58286    0.66638    0.99493    1.000
    S32      S        0.58217    0.66605    0.13302    1.000
    Mo33     Mo       0.91579    0.58283    0.06413    1.000
    S34      S        0.83243    0.66615    0.99519    1.000
    S35      S        0.83223    0.66600    0.13311    1.000
    Mo36     Mo       0.16579    0.83282    0.06415    1.000
    S37      S        0.08237    0.91603    0.99516    1.000
    S38      S        0.08248    0.91627    0.13307    1.000
    Mo39     Mo       0.41574    0.83284    0.06402    1.000
    S40      S        0.33235    0.91614    0.99514    1.000
    S41      S        0.33248    0.91618    0.13307    1.000
    Mo42     Mo       0.66574    0.83272    0.06403    1.000
    S43      S        0.58243    0.91617    0.99511    1.000
    S44      S        0.58240    0.91607    0.13302    1.000
    Mo45     Mo       0.91573    0.83276    0.06415    1.000
    S46      S        0.83250    0.91613    0.99516    1.000
    S47      S        0.83233    0.91608    0.13307    1.000
    C48      C        0.26302    0.43826    0.27589    1.000
    C49      C        0.37947    0.52579    0.27349    1.000
    N50      N        0.45243    0.47735    0.26970    1.000
    C51      C        0.38095    0.36159    0.26983    1.000
    N52      N        0.26468    0.33312    0.27370    1.000
    H53      H        0.18200    0.44019    0.27856    1.000
    H54      H        0.41490    0.61980    0.27427    1.000
    H55      H        0.40700    0.29566    0.26725    1.000
    H56      H        0.19336    0.25122    0.27320    1.000
