# CIF file generated by openbabel 3.1.0, see https://openbabel.org
data_I
_chemical_name_common ''
_cell_length_a 13.105
_cell_length_b 13.105
_cell_length_c 23.0122
_cell_angle_alpha 90
_cell_angle_beta 90
_cell_angle_gamma 120
loop_
    _atom_site_label
    _atom_site_type_symbol
    _atom_site_fract_x
    _atom_site_fract_y
    _atom_site_fract_z
    _atom_site_occupancy
    Mo0      Mo       0.16681    0.08389    0.06392    1.000
    S1       S        0.08323    0.16685    0.99491    1.000
    S2       S        0.08374    0.16765    0.13285    1.000
    Mo3      Mo       0.41675    0.08378    0.06397    1.000
    S4       S        0.33331    0.16680    0.99486    1.000
    S5       S        0.33366    0.16763    0.13277    1.000
    Mo6      Mo       0.66678    0.08387    0.06400    1.000
    S7       S        0.58340    0.16714    0.99503    1.000
    S8       S        0.58346    0.16734    0.13292    1.000
    Mo9      Mo       0.91673    0.08381    0.06400    1.000
    S10      S        0.83342    0.16715    0.99505    1.000
    S11      S        0.83347    0.16726    0.13295    1.000
    Mo12     Mo       0.16690    0.33399    0.06350    1.000
    S13      S        0.08334    0.41739    0.99482    1.000
    S14      S        0.08378    0.41712    0.13280    1.000
    Mo15     Mo       0.41694    0.33397    0.06344    1.000
    S16      S        0.33357    0.41732    0.99435    1.000
    S17      S        0.33358    0.41726    0.13196    1.000
    Mo18     Mo       0.66678    0.33398    0.06387    1.000
    S19      S        0.58388    0.41750    0.99477    1.000
    S20      S        0.58316    0.41713    0.13276    1.000
    Mo21     Mo       0.91685    0.33394    0.06393    1.000
    S22      S        0.83353    0.41729    0.99502    1.000
    S23      S        0.83339    0.41720    0.13293    1.000
    Mo24     Mo       0.16693    0.58388    0.06391    1.000
    S25      S        0.08344    0.66731    0.99507    1.000
    S26      S        0.08355    0.66707    0.13296    1.000
    Mo27     Mo       0.41698    0.58398    0.06362    1.000
    S28      S        0.33347    0.66744    0.99487    1.000
    S29      S        0.33368    0.66698    0.13287    1.000
    Mo30     Mo       0.66665    0.58391    0.06396    1.000
    S31      S        0.58376    0.66741    0.99484    1.000
    S32      S        0.58314    0.66701    0.13295    1.000
    Mo33     Mo       0.91677    0.58389    0.06403    1.000
    S34      S        0.83353    0.66729    0.99508    1.000
    S35      S        0.83322    0.66707    0.13300    1.000
    Mo36     Mo       0.16684    0.83387    0.06407    1.000
    S37      S        0.08340    0.91706    0.99509    1.000
    S38      S        0.08353    0.91732    0.13299    1.000
    Mo39     Mo       0.41679    0.83383    0.06398    1.000
    S40      S        0.33343    0.91713    0.99507    1.000
    S41      S        0.33350    0.91716    0.13299    1.000
    Mo42     Mo       0.66673    0.83371    0.06396    1.000
    S43      S        0.58349    0.91723    0.99505    1.000
    S44      S        0.58345    0.91711    0.13295    1.000
    Mo45     Mo       0.91677    0.83383    0.06406    1.000
    S46      S        0.83348    0.91715    0.99509    1.000
    S47      S        0.83335    0.91709    0.13298    1.000
    C48      C        0.24850    0.39505    0.27719    1.000
    C49      C        0.35387    0.49980    0.27711    1.000
    N50      N        0.44775    0.47933    0.27154    1.000
    C51      C        0.39975    0.36328    0.26833    1.000
    N52      N        0.27864    0.30779    0.27171    1.000
    H53      H        0.15828    0.37460    0.28028    1.000
    H54      H        0.36785    0.58790    0.28057    1.000
    H55      H        0.44635    0.31538    0.26374    1.000
    H56      H        0.22175    0.22014    0.26903    1.000
