# CIF file generated by openbabel 3.1.0, see https://openbabel.org
data_I
_chemical_name_common ''
_cell_length_a 13.105
_cell_length_b 13.105
_cell_length_c 23.0122
_cell_angle_alpha 90
_cell_angle_beta 90
_cell_angle_gamma 120
loop_
    _atom_site_label
    _atom_site_type_symbol
    _atom_site_fract_x
    _atom_site_fract_y
    _atom_site_fract_z
    _atom_site_occupancy
    Mo0      Mo       0.16606    0.08424    0.06400    1.000
    S1       S        0.08238    0.16714    0.99491    1.000
    S2       S        0.08273    0.16778    0.13284    1.000
    Mo3      Mo       0.41576    0.08412    0.06410    1.000
    S4       S        0.33251    0.16717    0.99495    1.000
    S5       S        0.33270    0.16778    0.13302    1.000
    Mo6      Mo       0.66577    0.08414    0.06408    1.000
    S7       S        0.58245    0.16747    0.99516    1.000
    S8       S        0.58243    0.16750    0.13307    1.000
    Mo9      Mo       0.91580    0.08413    0.06399    1.000
    S10      S        0.83243    0.16754    0.99512    1.000
    S11      S        0.83247    0.16744    0.13303    1.000
    Mo12     Mo       0.16597    0.33413    0.06357    1.000
    S13      S        0.08232    0.41759    0.99499    1.000
    S14      S        0.08284    0.41732    0.13296    1.000
    Mo15     Mo       0.41593    0.33401    0.06375    1.000
    S16      S        0.33263    0.41734    0.99447    1.000
    S17      S        0.33269    0.41750    0.13202    1.000
    Mo18     Mo       0.66580    0.33419    0.06410    1.000
    S19      S        0.58278    0.41746    0.99495    1.000
    S20      S        0.58217    0.41730    0.13303    1.000
    Mo21     Mo       0.91580    0.33416    0.06410    1.000
    S22      S        0.83251    0.41752    0.99518    1.000
    S23      S        0.83245    0.41751    0.13309    1.000
    Mo24     Mo       0.16593    0.58416    0.06401    1.000
    S25      S        0.08248    0.66751    0.99514    1.000
    S26      S        0.08261    0.66741    0.13306    1.000
    Mo27     Mo       0.41589    0.58411    0.06354    1.000
    S28      S        0.33235    0.66762    0.99490    1.000
    S29      S        0.33273    0.66717    0.13289    1.000
    Mo30     Mo       0.66570    0.58396    0.06398    1.000
    S31      S        0.58284    0.66758    0.99486    1.000
    S32      S        0.58212    0.66719    0.13285    1.000
    Mo33     Mo       0.91586    0.58415    0.06414    1.000
    S34      S        0.83258    0.66747    0.99515    1.000
    S35      S        0.83228    0.66740    0.13304    1.000
    Mo36     Mo       0.16586    0.83412    0.06414    1.000
    S37      S        0.08255    0.91741    0.99515    1.000
    S38      S        0.08261    0.91766    0.13304    1.000
    Mo39     Mo       0.41579    0.83408    0.06403    1.000
    S40      S        0.33244    0.91747    0.99515    1.000
    S41      S        0.33251    0.91743    0.13308    1.000
    Mo42     Mo       0.66580    0.83406    0.06396    1.000
    S43      S        0.58246    0.91750    0.99509    1.000
    S44      S        0.58245    0.91735    0.13300    1.000
    Mo45     Mo       0.91584    0.83417    0.06409    1.000
    S46      S        0.83254    0.91746    0.99508    1.000
    S47      S        0.83241    0.91746    0.13299    1.000
    C48      C        0.35225    0.51151    0.27518    1.000
    C49      C        0.43764    0.47952    0.27435    1.000
    N50      N        0.38646    0.35773    0.27127    1.000
    C51      C        0.27118    0.31625    0.27023    1.000
    N52      N        0.24560    0.40621    0.27274    1.000
    H53      H        0.35649    0.59559    0.27709    1.000
    H54      H        0.53192    0.53612    0.27585    1.000
    H55      H        0.20355    0.22483    0.26783    1.000
    H56      H        0.16465    0.39782    0.27094    1.000
