# CIF file generated by openbabel 3.1.0, see https://openbabel.org
data_I
_chemical_name_common ''
_cell_length_a 13.105
_cell_length_b 13.105
_cell_length_c 23.0122
_cell_angle_alpha 90
_cell_angle_beta 90
_cell_angle_gamma 120
loop_
    _atom_site_label
    _atom_site_type_symbol
    _atom_site_fract_x
    _atom_site_fract_y
    _atom_site_fract_z
    _atom_site_occupancy
    Mo0      Mo       0.16639    0.08313    0.06243    1.000
    S1       S        0.08275    0.16638    0.99363    1.000
    S2       S        0.08332    0.16662    0.13160    1.000
    Mo3      Mo       0.41641    0.08311    0.06248    1.000
    S4       S        0.33298    0.16632    0.99338    1.000
    S5       S        0.33304    0.16633    0.13111    1.000
    Mo6      Mo       0.66619    0.08320    0.06268    1.000
    S7       S        0.58303    0.16637    0.99352    1.000
    S8       S        0.58283    0.16661    0.13163    1.000
    Mo9      Mo       0.91625    0.08311    0.06274    1.000
    S10      S        0.83294    0.16644    0.99379    1.000
    S11      S        0.83283    0.16645    0.13168    1.000
    Mo12     Mo       0.16634    0.33316    0.06249    1.000
    S13      S        0.08291    0.41658    0.99375    1.000
    S14      S        0.08306    0.41633    0.13166    1.000
    Mo15     Mo       0.41646    0.33312    0.06236    1.000
    S16      S        0.33298    0.41655    0.99348    1.000
    S17      S        0.33297    0.41640    0.13131    1.000
    Mo18     Mo       0.66627    0.33303    0.06247    1.000
    S19      S        0.58321    0.41656    0.99339    1.000
    S20      S        0.58313    0.41633    0.13123    1.000
    Mo21     Mo       0.91628    0.33311    0.06273    1.000
    S22      S        0.83317    0.41647    0.99369    1.000
    S23      S        0.83269    0.41630    0.13164    1.000
    Mo24     Mo       0.16634    0.58313    0.06278    1.000
    S25      S        0.08300    0.66641    0.99379    1.000
    S26      S        0.08293    0.66648    0.13169    1.000
    Mo27     Mo       0.41630    0.58309    0.06260    1.000
    S28      S        0.33291    0.66651    0.99379    1.000
    S29      S        0.33309    0.66638    0.13172    1.000
    Mo30     Mo       0.66625    0.58301    0.06252    1.000
    S31      S        0.58297    0.66660    0.99368    1.000
    S32      S        0.58285    0.66615    0.13166    1.000
    Mo33     Mo       0.91625    0.58304    0.06271    1.000
    S34      S        0.83311    0.66652    0.99372    1.000
    S35      S        0.83275    0.66627    0.13165    1.000
    Mo36     Mo       0.16637    0.83315    0.06270    1.000
    S37      S        0.08288    0.91627    0.99368    1.000
    S38      S        0.08316    0.91669    0.13161    1.000
    Mo39     Mo       0.41631    0.83312    0.06277    1.000
    S40      S        0.33295    0.91621    0.99370    1.000
    S41      S        0.33308    0.91670    0.13165    1.000
    Mo42     Mo       0.66623    0.83308    0.06275    1.000
    S43      S        0.58293    0.91643    0.99381    1.000
    S44      S        0.58298    0.91658    0.13172    1.000
    Mo45     Mo       0.91630    0.83309    0.06271    1.000
    S46      S        0.83288    0.91643    0.99383    1.000
    S47      S        0.83296    0.91640    0.13169    1.000
    C48      C        0.43188    0.43020    0.28212    1.000
    C49      C        0.51928    0.40114    0.28110    1.000
    N50      N        0.47081    0.27950    0.27827    1.000
    C51      C        0.35514    0.23541    0.27773    1.000
    N52      N        0.32666    0.32326    0.28007    1.000
    H53      H        0.43389    0.51322    0.28404    1.000
    H54      H        0.61329    0.45951    0.28231    1.000
    H55      H        0.28907    0.14340    0.27562    1.000
    H56      H        0.24471    0.31240    0.27929    1.000
