# CIF file generated by openbabel 3.1.0, see https://openbabel.org
data_I
_chemical_name_common ''
_cell_length_a 13.105
_cell_length_b 13.105
_cell_length_c 23.0122
_cell_angle_alpha 90
_cell_angle_beta 90
_cell_angle_gamma 120
loop_
    _atom_site_label
    _atom_site_type_symbol
    _atom_site_fract_x
    _atom_site_fract_y
    _atom_site_fract_z
    _atom_site_occupancy
    Mo0      Mo       0.16678    0.08278    0.06278    1.000
    S1       S        0.08336    0.16591    0.99374    1.000
    S2       S        0.08344    0.16619    0.13166    1.000
    Mo3      Mo       0.41675    0.08280    0.06280    1.000
    S4       S        0.33337    0.16597    0.99375    1.000
    S5       S        0.33366    0.16652    0.13173    1.000
    Mo6      Mo       0.66670    0.08280    0.06270    1.000
    S7       S        0.58323    0.16592    0.99371    1.000
    S8       S        0.58350    0.16631    0.13169    1.000
    Mo9      Mo       0.91668    0.08269    0.06270    1.000
    S10      S        0.83339    0.16605    0.99376    1.000
    S11      S        0.83336    0.16606    0.13162    1.000
    Mo12     Mo       0.16663    0.33272    0.06253    1.000
    S13      S        0.08331    0.41627    0.99376    1.000
    S14      S        0.08333    0.41597    0.13169    1.000
    Mo15     Mo       0.41694    0.33291    0.06251    1.000
    S16      S        0.33327    0.41608    0.99354    1.000
    S17      S        0.33336    0.41613    0.13133    1.000
    Mo18     Mo       0.66657    0.33279    0.06253    1.000
    S19      S        0.58334    0.41601    0.99340    1.000
    S20      S        0.58343    0.41613    0.13141    1.000
    Mo21     Mo       0.91660    0.33271    0.06270    1.000
    S22      S        0.83340    0.41611    0.99370    1.000
    S23      S        0.83305    0.41591    0.13167    1.000
    Mo24     Mo       0.16663    0.58279    0.06283    1.000
    S25      S        0.08335    0.66615    0.99391    1.000
    S26      S        0.08312    0.66597    0.13181    1.000
    Mo27     Mo       0.41673    0.58283    0.06246    1.000
    S28      S        0.33320    0.66627    0.99380    1.000
    S29      S        0.33350    0.66595    0.13178    1.000
    Mo30     Mo       0.66644    0.58255    0.06243    1.000
    S31      S        0.58326    0.66614    0.99342    1.000
    S32      S        0.58328    0.66605    0.13126    1.000
    Mo33     Mo       0.91653    0.58263    0.06276    1.000
    S34      S        0.83343    0.66606    0.99369    1.000
    S35      S        0.83281    0.66574    0.13169    1.000
    Mo36     Mo       0.16664    0.83273    0.06291    1.000
    S37      S        0.08339    0.91603    0.99390    1.000
    S38      S        0.08324    0.91609    0.13179    1.000
    Mo39     Mo       0.41666    0.83281    0.06286    1.000
    S40      S        0.33324    0.91603    0.99392    1.000
    S41      S        0.33339    0.91620    0.13183    1.000
    Mo42     Mo       0.66660    0.83268    0.06250    1.000
    S43      S        0.58313    0.91613    0.99374    1.000
    S44      S        0.58350    0.91610    0.13170    1.000
    Mo45     Mo       0.91658    0.83262    0.06276    1.000
    S46      S        0.83347    0.91606    0.99371    1.000
    S47      S        0.83313    0.91590    0.13166    1.000
    C48      C        0.51561    0.60434    0.28196    1.000
    C49      C        0.59876    0.56947    0.28034    1.000
    N50      N        0.54465    0.44735    0.27757    1.000
    C51      C        0.42989    0.40860    0.27749    1.000
    N52      N        0.40742    0.50064    0.28024    1.000
    H53      H        0.52231    0.68953    0.28390    1.000
    H54      H        0.69337    0.62405    0.28088    1.000
    H55      H        0.36074    0.31771    0.27563    1.000
    H56      H        0.32741    0.49448    0.27979    1.000
