# CIF file generated by openbabel 3.1.0, see https://openbabel.org
data_I
_chemical_name_common ''
_cell_length_a 13.105
_cell_length_b 13.105
_cell_length_c 23.0122
_cell_angle_alpha 90
_cell_angle_beta 90
_cell_angle_gamma 120
loop_
    _atom_site_label
    _atom_site_type_symbol
    _atom_site_fract_x
    _atom_site_fract_y
    _atom_site_fract_z
    _atom_site_occupancy
    Mo0      Mo       0.16608    0.08375    0.06283    1.000
    S1       S        0.08263    0.16686    0.99382    1.000
    S2       S        0.08308    0.16738    0.13181    1.000
    Mo3      Mo       0.41611    0.08376    0.06282    1.000
    S4       S        0.33273    0.16700    0.99381    1.000
    S5       S        0.33282    0.16732    0.13177    1.000
    Mo6      Mo       0.66616    0.08377    0.06292    1.000
    S7       S        0.58285    0.16708    0.99394    1.000
    S8       S        0.58272    0.16705    0.13186    1.000
    Mo9      Mo       0.91618    0.08376    0.06295    1.000
    S10      S        0.83281    0.16699    0.99398    1.000
    S11      S        0.83291    0.16718    0.13188    1.000
    Mo12     Mo       0.16616    0.33378    0.06258    1.000
    S13      S        0.08253    0.41693    0.99367    1.000
    S14      S        0.08308    0.41719    0.13172    1.000
    Mo15     Mo       0.41606    0.33384    0.06263    1.000
    S16      S        0.33276    0.41699    0.99348    1.000
    S17      S        0.33255    0.41693    0.13138    1.000
    Mo18     Mo       0.66611    0.33372    0.06289    1.000
    S19      S        0.58298    0.41711    0.99384    1.000
    S20      S        0.58253    0.41701    0.13185    1.000
    Mo21     Mo       0.91621    0.33377    0.06285    1.000
    S22      S        0.83275    0.41708    0.99395    1.000
    S23      S        0.83280    0.41699    0.13189    1.000
    Mo24     Mo       0.16596    0.58363    0.06257    1.000
    S25      S        0.08248    0.66706    0.99380    1.000
    S26      S        0.08290    0.66701    0.13175    1.000
    Mo27     Mo       0.41592    0.58351    0.06254    1.000
    S28      S        0.33268    0.66700    0.99354    1.000
    S29      S        0.33258    0.66692    0.13133    1.000
    Mo30     Mo       0.66603    0.58367    0.06285    1.000
    S31      S        0.58289    0.66703    0.99372    1.000
    S32      S        0.58247    0.66699    0.13151    1.000
    Mo33     Mo       0.91601    0.58366    0.06294    1.000
    S34      S        0.83276    0.66708    0.99399    1.000
    S35      S        0.83259    0.66695    0.13196    1.000
    Mo36     Mo       0.16600    0.83371    0.06279    1.000
    S37      S        0.08257    0.91700    0.99391    1.000
    S38      S        0.08287    0.91713    0.13183    1.000
    Mo39     Mo       0.41597    0.83365    0.06258    1.000
    S40      S        0.33265    0.91713    0.99378    1.000
    S41      S        0.33270    0.91690    0.13171    1.000
    Mo42     Mo       0.66608    0.83367    0.06272    1.000
    S43      S        0.58294    0.91725    0.99383    1.000
    S44      S        0.58250    0.91674    0.13180    1.000
    Mo45     Mo       0.91607    0.83369    0.06298    1.000
    S46      S        0.83290    0.91707    0.99397    1.000
    S47      S        0.83262    0.91697    0.13192    1.000
    C48      C        0.53534    0.58817    0.28154    1.000
    C49      C        0.43155    0.48230    0.27823    1.000
    N50      N        0.33583    0.50061    0.27548    1.000
    C51      C        0.38127    0.61639    0.27717    1.000
    N52      N        0.50242    0.67394    0.28097    1.000
    H53      H        0.62617    0.61043    0.28399    1.000
    H54      H        0.41959    0.39474    0.27771    1.000
    H55      H        0.33255    0.66258    0.27599    1.000
    H56      H        0.55755    0.76206    0.28179    1.000
