# CIF file generated by openbabel 3.1.0, see https://openbabel.org
data_I
_chemical_name_common ''
_cell_length_a 13.105
_cell_length_b 13.105
_cell_length_c 23.0122
_cell_angle_alpha 90
_cell_angle_beta 90
_cell_angle_gamma 120
loop_
    _atom_site_label
    _atom_site_type_symbol
    _atom_site_fract_x
    _atom_site_fract_y
    _atom_site_fract_z
    _atom_site_occupancy
    Mo0      Mo       0.16725    0.08373    0.06232    1.000
    S1       S        0.08374    0.16699    0.99348    1.000
    S2       S        0.08415    0.16719    0.13145    1.000
    Mo3      Mo       0.41733    0.08377    0.06236    1.000
    S4       S        0.33390    0.16695    0.99328    1.000
    S5       S        0.33404    0.16727    0.13106    1.000
    Mo6      Mo       0.66725    0.08374    0.06250    1.000
    S7       S        0.58398    0.16699    0.99342    1.000
    S8       S        0.58393    0.16738    0.13140    1.000
    Mo9      Mo       0.91719    0.08369    0.06253    1.000
    S10      S        0.83390    0.16706    0.99358    1.000
    S11      S        0.83388    0.16710    0.13149    1.000
    Mo12     Mo       0.16736    0.33380    0.06232    1.000
    S13      S        0.08392    0.41716    0.99353    1.000
    S14      S        0.08408    0.41706    0.13146    1.000
    Mo15     Mo       0.41755    0.33396    0.06210    1.000
    S16      S        0.33388    0.41716    0.99320    1.000
    S17      S        0.33406    0.41704    0.13104    1.000
    Mo18     Mo       0.66726    0.33390    0.06226    1.000
    S19      S        0.58413    0.41717    0.99307    1.000
    S20      S        0.58410    0.41723    0.13104    1.000
    Mo21     Mo       0.91726    0.33377    0.06250    1.000
    S22      S        0.83414    0.41718    0.99346    1.000
    S23      S        0.83373    0.41709    0.13140    1.000
    Mo24     Mo       0.16735    0.58379    0.06252    1.000
    S25      S        0.08409    0.66715    0.99353    1.000
    S26      S        0.08395    0.66707    0.13147    1.000
    Mo27     Mo       0.41727    0.58367    0.06233    1.000
    S28      S        0.33395    0.66715    0.99352    1.000
    S29      S        0.33405    0.66693    0.13146    1.000
    Mo30     Mo       0.66727    0.58359    0.06224    1.000
    S31      S        0.58395    0.66715    0.99341    1.000
    S32      S        0.58388    0.66669    0.13140    1.000
    Mo33     Mo       0.91733    0.58377    0.06246    1.000
    S34      S        0.83414    0.66715    0.99344    1.000
    S35      S        0.83370    0.66682    0.13140    1.000
    Mo36     Mo       0.16734    0.83377    0.06252    1.000
    S37      S        0.08389    0.91696    0.99352    1.000
    S38      S        0.08403    0.91721    0.13146    1.000
    Mo39     Mo       0.41733    0.83374    0.06254    1.000
    S40      S        0.33395    0.91699    0.99353    1.000
    S41      S        0.33406    0.91727    0.13147    1.000
    Mo42     Mo       0.66722    0.83364    0.06250    1.000
    S43      S        0.58393    0.91705    0.99356    1.000
    S44      S        0.58397    0.91704    0.13149    1.000
    Mo45     Mo       0.91723    0.83366    0.06251    1.000
    S46      S        0.83389    0.91701    0.99358    1.000
    S47      S        0.83383    0.91693    0.13149    1.000
    C48      C        0.32478    0.34737    0.28505    1.000
    C49      C        0.44187    0.43255    0.28157    1.000
    N50      N        0.51202    0.38105    0.27671    1.000
    C51      C        0.43815    0.26581    0.27721    1.000
    N52      N        0.32305    0.24056    0.28237    1.000
    H53      H        0.24526    0.35185    0.28884    1.000
    H54      H        0.47977    0.52689    0.28216    1.000
    H55      H        0.46185    0.19820    0.27408    1.000
    H56      H        0.25044    0.15961    0.28271    1.000
