# CIF file generated by openbabel 3.1.0, see https://openbabel.org
data_I
_chemical_name_common ''
_cell_length_a 13.105
_cell_length_b 13.105
_cell_length_c 23.0122
_cell_angle_alpha 90
_cell_angle_beta 90
_cell_angle_gamma 120
loop_
    _atom_site_label
    _atom_site_type_symbol
    _atom_site_fract_x
    _atom_site_fract_y
    _atom_site_fract_z
    _atom_site_occupancy
    Mo0      Mo       0.16605    0.08337    0.06267    1.000
    S1       S        0.08255    0.16645    0.99368    1.000
    S2       S        0.08284    0.16696    0.13154    1.000
    Mo3      Mo       0.41616    0.08350    0.06263    1.000
    S4       S        0.33271    0.16671    0.99371    1.000
    S5       S        0.33278    0.16684    0.13159    1.000
    Mo6      Mo       0.66610    0.08349    0.06267    1.000
    S7       S        0.58288    0.16697    0.99377    1.000
    S8       S        0.58275    0.16676    0.13165    1.000
    Mo9      Mo       0.91597    0.08340    0.06272    1.000
    S10      S        0.83269    0.16672    0.99372    1.000
    S11      S        0.83274    0.16688    0.13163    1.000
    Mo12     Mo       0.16603    0.33341    0.06236    1.000
    S13      S        0.08251    0.41659    0.99345    1.000
    S14      S        0.08303    0.41706    0.13135    1.000
    Mo15     Mo       0.41615    0.33347    0.06255    1.000
    S16      S        0.33292    0.41681    0.99342    1.000
    S17      S        0.33263    0.41684    0.13121    1.000
    Mo18     Mo       0.66611    0.33354    0.06276    1.000
    S19      S        0.58292    0.41692    0.99378    1.000
    S20      S        0.58263    0.41692    0.13174    1.000
    Mo21     Mo       0.91602    0.33346    0.06258    1.000
    S22      S        0.83260    0.41681    0.99373    1.000
    S23      S        0.83291    0.41694    0.13160    1.000
    Mo24     Mo       0.16619    0.58360    0.06219    1.000
    S25      S        0.08258    0.66696    0.99348    1.000
    S26      S        0.08302    0.66682    0.13138    1.000
    Mo27     Mo       0.41620    0.58369    0.06236    1.000
    S28      S        0.33299    0.66692    0.99319    1.000
    S29      S        0.33265    0.66700    0.13102    1.000
    Mo30     Mo       0.66600    0.58361    0.06272    1.000
    S31      S        0.58292    0.66688    0.99352    1.000
    S32      S        0.58245    0.66678    0.13159    1.000
    Mo33     Mo       0.91608    0.58355    0.06261    1.000
    S34      S        0.83273    0.66699    0.99380    1.000
    S35      S        0.83276    0.66683    0.13170    1.000
    Mo36     Mo       0.16615    0.83355    0.06251    1.000
    S37      S        0.08265    0.91683    0.99370    1.000
    S38      S        0.08293    0.91675    0.13165    1.000
    Mo39     Mo       0.41615    0.83354    0.06232    1.000
    S40      S        0.33283    0.91706    0.99353    1.000
    S41      S        0.33283    0.91665    0.13145    1.000
    Mo42     Mo       0.66603    0.83335    0.06268    1.000
    S43      S        0.58309    0.91699    0.99362    1.000
    S44      S        0.58255    0.91662    0.13159    1.000
    Mo45     Mo       0.91615    0.83354    0.06279    1.000
    S46      S        0.83282    0.91677    0.99382    1.000
    S47      S        0.83263    0.91674    0.13172    1.000
    C48      C        0.34090    0.56729    0.27632    1.000
    C49      C        0.44534    0.67260    0.28015    1.000
    N50      N        0.53982    0.65296    0.28552    1.000
    C51      C        0.49315    0.53691    0.28501    1.000
    N52      N        0.37229    0.48063    0.27976    1.000
    H53      H        0.25062    0.54587    0.27154    1.000
    H54      H        0.45839    0.76059    0.27946    1.000
    H55      H        0.54055    0.48957    0.28829    1.000
    H56      H        0.31678    0.39281    0.27682    1.000
