# CIF file generated by openbabel 3.1.0, see https://openbabel.org
data_I
_chemical_name_common ''
_cell_length_a 13.105
_cell_length_b 13.105
_cell_length_c 23.0122
_cell_angle_alpha 90
_cell_angle_beta 90
_cell_angle_gamma 120
loop_
    _atom_site_label
    _atom_site_type_symbol
    _atom_site_fract_x
    _atom_site_fract_y
    _atom_site_fract_z
    _atom_site_occupancy
    Mo0      Mo       0.16638    0.08269    0.06295    1.000
    S1       S        0.08313    0.16597    0.99394    1.000
    S2       S        0.08310    0.16617    0.13185    1.000
    Mo3      Mo       0.41636    0.08268    0.06292    1.000
    S4       S        0.33296    0.16590    0.99390    1.000
    S5       S        0.33333    0.16646    0.13187    1.000
    Mo6      Mo       0.66649    0.08283    0.06284    1.000
    S7       S        0.58289    0.16583    0.99385    1.000
    S8       S        0.58321    0.16630    0.13177    1.000
    Mo9      Mo       0.91639    0.08280    0.06285    1.000
    S10      S        0.83316    0.16617    0.99386    1.000
    S11      S        0.83313    0.16620    0.13180    1.000
    Mo12     Mo       0.16645    0.33280    0.06276    1.000
    S13      S        0.08318    0.41630    0.99392    1.000
    S14      S        0.08310    0.41607    0.13184    1.000
    Mo15     Mo       0.41655    0.33286    0.06257    1.000
    S16      S        0.33308    0.41619    0.99375    1.000
    S17      S        0.33323    0.41617    0.13158    1.000
    Mo18     Mo       0.66638    0.33276    0.06258    1.000
    S19      S        0.58308    0.41605    0.99350    1.000
    S20      S        0.58326    0.41632    0.13130    1.000
    Mo21     Mo       0.91642    0.33281    0.06282    1.000
    S22      S        0.83321    0.41619    0.99379    1.000
    S23      S        0.83285    0.41608    0.13173    1.000
    Mo24     Mo       0.16646    0.58283    0.06294    1.000
    S25      S        0.08307    0.66610    0.99396    1.000
    S26      S        0.08284    0.66601    0.13188    1.000
    Mo27     Mo       0.41666    0.58294    0.06271    1.000
    S28      S        0.33307    0.66619    0.99392    1.000
    S29      S        0.33334    0.66607    0.13191    1.000
    Mo30     Mo       0.66646    0.58289    0.06247    1.000
    S31      S        0.58307    0.66630    0.99354    1.000
    S32      S        0.58338    0.66622    0.13142    1.000
    Mo33     Mo       0.91625    0.58282    0.06281    1.000
    S34      S        0.83321    0.66626    0.99368    1.000
    S35      S        0.83259    0.66592    0.13177    1.000
    Mo36     Mo       0.16629    0.83269    0.06294    1.000
    S37      S        0.08304    0.91606    0.99398    1.000
    S38      S        0.08283    0.91589    0.13189    1.000
    Mo39     Mo       0.41637    0.83279    0.06293    1.000
    S40      S        0.33292    0.91600    0.99397    1.000
    S41      S        0.33292    0.91600    0.13191    1.000
    Mo42     Mo       0.66637    0.83278    0.06264    1.000
    S43      S        0.58292    0.91622    0.99387    1.000
    S44      S        0.58319    0.91609    0.13181    1.000
    Mo45     Mo       0.91624    0.83265    0.06284    1.000
    S46      S        0.83318    0.91625    0.99383    1.000
    S47      S        0.83285    0.91600    0.13178    1.000
    C48      C        0.42385    0.52256    0.28021    1.000
    C49      C        0.54022    0.61028    0.28042    1.000
    N50      N        0.61379    0.56224    0.27879    1.000
    C51      C        0.54262    0.44651    0.27778    1.000
    N52      N        0.42606    0.41758    0.27865    1.000
    H53      H        0.34255    0.52418    0.28083    1.000
    H54      H        0.57542    0.70422    0.28172    1.000
    H55      H        0.56932    0.38098    0.27662    1.000
    H56      H        0.35502    0.33561    0.27734    1.000
