# CIF file generated by openbabel 3.1.0, see https://openbabel.org
data_I
_chemical_name_common ''
_cell_length_a 13.105
_cell_length_b 13.105
_cell_length_c 23.0122
_cell_angle_alpha 90
_cell_angle_beta 90
_cell_angle_gamma 120
loop_
    _atom_site_label
    _atom_site_type_symbol
    _atom_site_fract_x
    _atom_site_fract_y
    _atom_site_fract_z
    _atom_site_occupancy
    C0       C        0.45899    0.58479    0.47959    1.000
    C1       C        0.57654    0.61820    0.47960    1.000
    N2       N        0.59064    0.51985    0.47959    1.000
    C3       C        0.48264    0.42775    0.47959    1.000
    N4       N        0.39904    0.46223    0.47958    1.000
    H5       H        0.41341    0.63393    0.47954    1.000
    H6       H        0.65145    0.70609    0.47957    1.000
    H7       H        0.45955    0.33649    0.47957    1.000
    H8       H        0.31073    0.40884    0.47948    1.000
