# CIF file generated by openbabel 3.1.0, see https://openbabel.org
data_I
_chemical_name_common ''
_cell_length_a 13.105
_cell_length_b 13.105
_cell_length_c 23.0122
_cell_angle_alpha 90
_cell_angle_beta 90
_cell_angle_gamma 120
loop_
    _atom_site_label
    _atom_site_type_symbol
    _atom_site_fract_x
    _atom_site_fract_y
    _atom_site_fract_z
    _atom_site_occupancy
    Mo0      Mo       0.16618    0.08306    0.06743    1.000
    S1       S        0.08275    0.16640    0.99854    1.000
    S2       S        0.08299    0.16649    0.13646    1.000
    Mo3      Mo       0.41622    0.08312    0.06728    1.000
    S4       S        0.33247    0.16592    0.99819    1.000
    S5       S        0.33319    0.16683    0.13620    1.000
    Mo6      Mo       0.66622    0.08308    0.06742    1.000
    S7       S        0.58278    0.16594    0.99819    1.000
    S8       S        0.58296    0.16683    0.13620    1.000
    Mo9      Mo       0.91623    0.08312    0.06754    1.000
    S10      S        0.83299    0.16641    0.99854    1.000
    S11      S        0.83283    0.16650    0.13646    1.000
    Mo12     Mo       0.16621    0.33313    0.06745    1.000
    S13      S        0.08292    0.41654    0.99856    1.000
    S14      S        0.08285    0.41640    0.13649    1.000
    Mo15     Mo       0.41589    0.33293    0.06677    1.000
    S16      S        0.33247    0.41653    0.99820    1.000
    S17      S        0.33320    0.41633    0.13620    1.000
    Mo18     Mo       0.66633    0.33294    0.06678    1.000
    S19      S        0.58282    0.41636    0.99769    1.000
    S20      S        0.58279    0.41634    0.13492    1.000
    Mo21     Mo       0.91623    0.33314    0.06745    1.000
    S22      S        0.83335    0.41652    0.99820    1.000
    S23      S        0.83242    0.41632    0.13620    1.000
    Mo24     Mo       0.16622    0.58311    0.06755    1.000
    S25      S        0.08306    0.66651    0.99854    1.000
    S26      S        0.08263    0.66634    0.13645    1.000
    Mo27     Mo       0.41622    0.58306    0.06731    1.000
    S28      S        0.33277    0.66652    0.99853    1.000
    S29      S        0.33304    0.66636    0.13645    1.000
    Mo30     Mo       0.66629    0.58330    0.06676    1.000
    S31      S        0.58275    0.66675    0.99818    1.000
    S32      S        0.58301    0.66610    0.13619    1.000
    Mo33     Mo       0.91614    0.58305    0.06731    1.000
    S34      S        0.83331    0.66674    0.99818    1.000
    S35      S        0.83239    0.66608    0.13619    1.000
    Mo36     Mo       0.16619    0.83309    0.06752    1.000
    S37      S        0.08290    0.91639    0.99851    1.000
    S38      S        0.08280    0.91643    0.13644    1.000
    Mo39     Mo       0.41624    0.83310    0.06752    1.000
    S40      S        0.33278    0.91621    0.99851    1.000
    S41      S        0.33300    0.91665    0.13643    1.000
    Mo42     Mo       0.66621    0.83309    0.06739    1.000
    S43      S        0.58284    0.91641    0.99851    1.000
    S44      S        0.58298    0.91645    0.13643    1.000
    Mo45     Mo       0.91620    0.83307    0.06740    1.000
    S46      S        0.83298    0.91660    0.99850    1.000
    S47      S        0.83282    0.91629    0.13643    1.000
    C48      C        0.53335    0.31326    0.32615    1.000
    C49      C        0.53238    0.31301    0.38697    1.000
    C50      C        0.58481    0.41979    0.41741    1.000
    C51      C        0.63818    0.52687    0.38718    1.000
    C52      C        0.63911    0.52717    0.32637    1.000
    C53      C        0.58673    0.42034    0.29602    1.000
    H54      H        0.49098    0.23033    0.41049    1.000
    H55      H        0.58398    0.41960    0.46448    1.000
    H56      H        0.67856    0.60932    0.41089    1.000
    H57      H        0.68022    0.60983    0.30274    1.000
    H58      H        0.58742    0.42056    0.24906    1.000
    H59      H        0.49265    0.23079    0.30233    1.000
