# CIF file generated by openbabel 3.1.0, see https://openbabel.org
data_I
_chemical_name_common ''
_cell_length_a 13.105
_cell_length_b 13.105
_cell_length_c 23.0122
_cell_angle_alpha 90
_cell_angle_beta 90
_cell_angle_gamma 120
loop_
    _atom_site_label
    _atom_site_type_symbol
    _atom_site_fract_x
    _atom_site_fract_y
    _atom_site_fract_z
    _atom_site_occupancy
    Mo0      Mo       0.16653    0.08353    0.06770    1.000
    S1       S        0.08307    0.16671    0.99874    1.000
    S2       S        0.08317    0.16681    0.13669    1.000
    Mo3      Mo       0.41667    0.08353    0.06770    1.000
    S4       S        0.33328    0.16688    0.99874    1.000
    S5       S        0.33322    0.16677    0.13661    1.000
    Mo6      Mo       0.66658    0.08340    0.06774    1.000
    S7       S        0.58332    0.16672    0.99874    1.000
    S8       S        0.58332    0.16681    0.13669    1.000
    Mo9      Mo       0.91649    0.08339    0.06774    1.000
    S10      S        0.83322    0.16677    0.99879    1.000
    S11      S        0.83320    0.16673    0.13671    1.000
    Mo12     Mo       0.16644    0.33344    0.06765    1.000
    S13      S        0.08314    0.41689    0.99877    1.000
    S14      S        0.08320    0.41678    0.13671    1.000
    Mo15     Mo       0.41661    0.33355    0.06768    1.000
    S16      S        0.33316    0.41677    0.99868    1.000
    S17      S        0.33291    0.41673    0.13656    1.000
    Mo18     Mo       0.66666    0.33344    0.06765    1.000
    S19      S        0.58328    0.41677    0.99868    1.000
    S20      S        0.58348    0.41673    0.13656    1.000
    Mo21     Mo       0.91655    0.33344    0.06776    1.000
    S22      S        0.83342    0.41689    0.99878    1.000
    S23      S        0.83325    0.41678    0.13671    1.000
    Mo24     Mo       0.16655    0.58352    0.06778    1.000
    S25      S        0.08330    0.66693    0.99883    1.000
    S26      S        0.08331    0.66694    0.13675    1.000
    Mo27     Mo       0.41647    0.58341    0.06766    1.000
    S28      S        0.33314    0.66683    0.99879    1.000
    S29      S        0.33325    0.66677    0.13673    1.000
    Mo30     Mo       0.66661    0.58340    0.06766    1.000
    S31      S        0.58317    0.66667    0.99869    1.000
    S32      S        0.58328    0.66689    0.13654    1.000
    Mo33     Mo       0.91665    0.58352    0.06778    1.000
    S34      S        0.83336    0.66682    0.99879    1.000
    S35      S        0.83320    0.66677    0.13673    1.000
    Mo36     Mo       0.16663    0.83358    0.06777    1.000
    S37      S        0.08325    0.91684    0.99879    1.000
    S38      S        0.08327    0.91694    0.13671    1.000
    Mo39     Mo       0.41657    0.83347    0.06775    1.000
    S40      S        0.33327    0.91685    0.99879    1.000
    S41      S        0.33335    0.91694    0.13671    1.000
    Mo42     Mo       0.66655    0.83343    0.06764    1.000
    S43      S        0.58317    0.91675    0.99875    1.000
    S44      S        0.58325    0.91670    0.13668    1.000
    Mo45     Mo       0.91658    0.83347    0.06775    1.000
    S46      S        0.83326    0.91675    0.99875    1.000
    S47      S        0.83313    0.91670    0.13668    1.000
    C48      C        0.43006    0.36034    0.28788    1.000
    C49      C        0.39947    0.29922    0.34072    1.000
    C50      C        0.43074    0.36162    0.39318    1.000
    C51      C        0.49247    0.48493    0.39281    1.000
    C52      C        0.52305    0.54603    0.34000    1.000
    C53      C        0.49183    0.48371    0.28753    1.000
    H54      H        0.35170    0.20375    0.34098    1.000
    H55      H        0.40719    0.31449    0.43411    1.000
    H56      H        0.51662    0.53305    0.43346    1.000
    H57      H        0.57088    0.64151    0.33968    1.000
    H58      H        0.51565    0.53124    0.24669    1.000
    H59      H        0.40578    0.31180    0.24731    1.000
