# CIF file generated by openbabel 3.1.0, see https://openbabel.org
data_I
_chemical_name_common ''
_cell_length_a 13.105
_cell_length_b 13.105
_cell_length_c 23.0122
_cell_angle_alpha 90
_cell_angle_beta 90
_cell_angle_gamma 120
loop_
    _atom_site_label
    _atom_site_type_symbol
    _atom_site_fract_x
    _atom_site_fract_y
    _atom_site_fract_z
    _atom_site_occupancy
    Mo0      Mo       0.16597    0.08244    0.06493    1.000
    S1       S        0.08262    0.16575    0.99593    1.000
    S2       S        0.08289    0.16603    0.13388    1.000
    Mo3      Mo       0.41589    0.08243    0.06494    1.000
    S4       S        0.33249    0.16553    0.99588    1.000
    S5       S        0.33266    0.16590    0.13387    1.000
    Mo6      Mo       0.66602    0.08272    0.06500    1.000
    S7       S        0.58256    0.16576    0.99595    1.000
    S8       S        0.58254    0.16601    0.13390    1.000
    Mo9      Mo       0.91611    0.08272    0.06499    1.000
    S10      S        0.83270    0.16601    0.99605    1.000
    S11      S        0.83274    0.16605    0.13397    1.000
    Mo12     Mo       0.16600    0.33251    0.06476    1.000
    S13      S        0.08262    0.41593    0.99596    1.000
    S14      S        0.08282    0.41583    0.13387    1.000
    Mo15     Mo       0.41590    0.33238    0.06466    1.000
    S16      S        0.33276    0.41597    0.99573    1.000
    S17      S        0.33268    0.41583    0.13349    1.000
    Mo18     Mo       0.66593    0.33251    0.06478    1.000
    S19      S        0.58267    0.41597    0.99574    1.000
    S20      S        0.58256    0.41584    0.13350    1.000
    Mo21     Mo       0.91602    0.33262    0.06498    1.000
    S22      S        0.83272    0.41593    0.99598    1.000
    S23      S        0.83246    0.41583    0.13389    1.000
    Mo24     Mo       0.16604    0.58252    0.06496    1.000
    S25      S        0.08256    0.66573    0.99603    1.000
    S26      S        0.08256    0.66569    0.13395    1.000
    Mo27     Mo       0.41616    0.58272    0.06480    1.000
    S28      S        0.33271    0.66600    0.99597    1.000
    S29      S        0.33278    0.66579    0.13392    1.000
    Mo30     Mo       0.66598    0.58272    0.06481    1.000
    S31      S        0.58288    0.66633    0.99592    1.000
    S32      S        0.58269    0.66598    0.13392    1.000
    Mo33     Mo       0.91589    0.58252    0.06498    1.000
    S34      S        0.83271    0.66600    0.99598    1.000
    S35      S        0.83244    0.66581    0.13393    1.000
    Mo36     Mo       0.16588    0.83235    0.06499    1.000
    S37      S        0.08254    0.91565    0.99603    1.000
    S38      S        0.08261    0.91578    0.13392    1.000
    Mo39     Mo       0.41602    0.83255    0.06500    1.000
    S40      S        0.33252    0.91566    0.99604    1.000
    S41      S        0.33257    0.91576    0.13393    1.000
    Mo42     Mo       0.66610    0.83279    0.06501    1.000
    S43      S        0.58273    0.91611    0.99607    1.000
    S44      S        0.58272    0.91609    0.13396    1.000
    Mo45     Mo       0.91594    0.83256    0.06500    1.000
    S46      S        0.83278    0.91611    0.99606    1.000
    S47      S        0.83278    0.91610    0.13396    1.000
    C48      C        0.41566    0.42962    0.29871    1.000
    C49      C        0.35983    0.42624    0.35109    1.000
    C50      C        0.41093    0.42302    0.40396    1.000
    C51      C        0.51773    0.42301    0.40443    1.000
    C52      C        0.57350    0.42627    0.35205    1.000
    C53      C        0.52246    0.42961    0.29919    1.000
    H54      H        0.27710    0.42610    0.35074    1.000
    H55      H        0.36782    0.42047    0.44453    1.000
    H56      H        0.55718    0.42046    0.44536    1.000
    H57      H        0.65611    0.42618    0.35239    1.000
    H58      H        0.56563    0.43208    0.25863    1.000
    H59      H        0.37597    0.43201    0.25779    1.000
