# CIF file generated by openbabel 3.1.0, see https://openbabel.org
data_I
_chemical_name_common ''
_cell_length_a 13.105
_cell_length_b 13.105
_cell_length_c 23.0122
_cell_angle_alpha 90
_cell_angle_beta 90
_cell_angle_gamma 120
loop_
    _atom_site_label
    _atom_site_type_symbol
    _atom_site_fract_x
    _atom_site_fract_y
    _atom_site_fract_z
    _atom_site_occupancy
    Mo0      Mo       0.16643    0.08323    0.06102    1.000
    S1       S        0.08307    0.16653    0.99211    1.000
    S2       S        0.08315    0.16657    0.13002    1.000
    Mo3      Mo       0.41642    0.08318    0.06112    1.000
    S4       S        0.33307    0.16632    0.99202    1.000
    S5       S        0.33312    0.16677    0.12995    1.000
    Mo6      Mo       0.66645    0.08323    0.06102    1.000
    S7       S        0.58291    0.16632    0.99202    1.000
    S8       S        0.58331    0.16677    0.12995    1.000
    Mo9      Mo       0.91644    0.08323    0.06108    1.000
    S10      S        0.83312    0.16653    0.99211    1.000
    S11      S        0.83307    0.16657    0.13002    1.000
    Mo12     Mo       0.16643    0.33319    0.06103    1.000
    S13      S        0.08319    0.41673    0.99220    1.000
    S14      S        0.08301    0.41635    0.13008    1.000
    Mo15     Mo       0.41651    0.33325    0.06078    1.000
    S16      S        0.33307    0.41676    0.99203    1.000
    S17      S        0.33313    0.41637    0.12995    1.000
    Mo18     Mo       0.66640    0.33325    0.06078    1.000
    S19      S        0.58312    0.41659    0.99163    1.000
    S20      S        0.58304    0.41643    0.12935    1.000
    Mo21     Mo       0.91642    0.33318    0.06103    1.000
    S22      S        0.83335    0.41676    0.99203    1.000
    S23      S        0.83290    0.41637    0.12995    1.000
    Mo24     Mo       0.16644    0.58323    0.06128    1.000
    S25      S        0.08328    0.66663    0.99232    1.000
    S26      S        0.08300    0.66648    0.13024    1.000
    Mo27     Mo       0.41641    0.58326    0.06113    1.000
    S28      S        0.33302    0.66663    0.99232    1.000
    S29      S        0.33314    0.66648    0.13024    1.000
    Mo30     Mo       0.66639    0.58311    0.06084    1.000
    S31      S        0.58295    0.66660    0.99207    1.000
    S32      S        0.58328    0.66655    0.12999    1.000
    Mo33     Mo       0.91651    0.58326    0.06113    1.000
    S34      S        0.83331    0.66660    0.99207    1.000
    S35      S        0.83293    0.66654    0.12999    1.000
    Mo36     Mo       0.16646    0.83320    0.06129    1.000
    S37      S        0.08319    0.91643    0.99221    1.000
    S38      S        0.08304    0.91665    0.13008    1.000
    Mo39     Mo       0.41640    0.83320    0.06129    1.000
    S40      S        0.33303    0.91640    0.99232    1.000
    S41      S        0.33318    0.91669    0.13025    1.000
    Mo42     Mo       0.66648    0.83324    0.06105    1.000
    S43      S        0.58289    0.91643    0.99221    1.000
    S44      S        0.58327    0.91665    0.13008    1.000
    Mo45     Mo       0.91642    0.83324    0.06105    1.000
    S46      S        0.83313    0.91660    0.99212    1.000
    S47      S        0.83310    0.91655    0.13003    1.000
    C48      C        0.68714    0.41109    0.27376    1.000
    C49      C        0.58028    0.30426    0.27423    1.000
    C50      C        0.47338    0.30426    0.27425    1.000
    C51      C        0.47337    0.41109    0.27381    1.000
    C52      C        0.58026    0.51797    0.27337    1.000
    C53      C        0.68713    0.51799    0.27334    1.000
    H54      H        0.58025    0.22154    0.27456    1.000
    H55      H        0.39069    0.22154    0.27461    1.000
    H56      H        0.39066    0.41110    0.27378    1.000
    H57      H        0.58026    0.60067    0.27293    1.000
    H58      H        0.76982    0.60069    0.27288    1.000
    H59      H        0.76984    0.41110    0.27368    1.000
