# CIF file generated by openbabel 3.1.0, see https://openbabel.org
data_I
_chemical_name_common ''
_cell_length_a 13.105
_cell_length_b 13.105
_cell_length_c 23.0122
_cell_angle_alpha 90
_cell_angle_beta 90
_cell_angle_gamma 120
loop_
    _atom_site_label
    _atom_site_type_symbol
    _atom_site_fract_x
    _atom_site_fract_y
    _atom_site_fract_z
    _atom_site_occupancy
    Mo0      Mo       0.16625    0.08271    0.06130    1.000
    S1       S        0.08293    0.16604    0.99236    1.000
    S2       S        0.08289    0.16601    0.13026    1.000
    Mo3      Mo       0.41622    0.08270    0.06141    1.000
    S4       S        0.33286    0.16580    0.99230    1.000
    S5       S        0.33296    0.16630    0.13025    1.000
    Mo6      Mo       0.66619    0.08271    0.06131    1.000
    S7       S        0.58267    0.16580    0.99230    1.000
    S8       S        0.58308    0.16630    0.13025    1.000
    Mo9      Mo       0.91621    0.08269    0.06130    1.000
    S10      S        0.83285    0.16604    0.99236    1.000
    S11      S        0.83286    0.16601    0.13027    1.000
    Mo12     Mo       0.16624    0.33268    0.06131    1.000
    S13      S        0.08295    0.41616    0.99249    1.000
    S14      S        0.08277    0.41579    0.13036    1.000
    Mo15     Mo       0.41628    0.33274    0.06104    1.000
    S16      S        0.33284    0.41625    0.99231    1.000
    S17      S        0.33295    0.41584    0.13026    1.000
    Mo18     Mo       0.66619    0.33274    0.06104    1.000
    S19      S        0.58291    0.41608    0.99187    1.000
    S20      S        0.58288    0.41604    0.12953    1.000
    Mo21     Mo       0.91618    0.33268    0.06132    1.000
    S22      S        0.83315    0.41625    0.99231    1.000
    S23      S        0.83262    0.41584    0.13027    1.000
    Mo24     Mo       0.16620    0.58267    0.06155    1.000
    S25      S        0.08301    0.66608    0.99260    1.000
    S26      S        0.08279    0.66596    0.13051    1.000
    Mo27     Mo       0.41621    0.58270    0.06143    1.000
    S28      S        0.33280    0.66608    0.99260    1.000
    S29      S        0.33291    0.66596    0.13051    1.000
    Mo30     Mo       0.66620    0.58267    0.06106    1.000
    S31      S        0.58268    0.66610    0.99233    1.000
    S32      S        0.58307    0.66599    0.13028    1.000
    Mo33     Mo       0.91623    0.58270    0.06143    1.000
    S34      S        0.83316    0.66610    0.99233    1.000
    S35      S        0.83265    0.66599    0.13028    1.000
    Mo36     Mo       0.16622    0.83268    0.06156    1.000
    S37      S        0.08298    0.91592    0.99249    1.000
    S38      S        0.08280    0.91613    0.13036    1.000
    Mo39     Mo       0.41619    0.83268    0.06156    1.000
    S40      S        0.33281    0.91589    0.99260    1.000
    S41      S        0.33294    0.91615    0.13051    1.000
    Mo42     Mo       0.66621    0.83269    0.06132    1.000
    S43      S        0.58268    0.91592    0.99249    1.000
    S44      S        0.58307    0.91613    0.13036    1.000
    Mo45     Mo       0.91621    0.83269    0.06132    1.000
    S46      S        0.83286    0.91599    0.99237    1.000
    S47      S        0.83289    0.91605    0.13027    1.000
    C48      C        0.64288    0.35149    0.27271    1.000
    C49      C        0.51949    0.28987    0.27252    1.000
    C50      C        0.45775    0.35151    0.27267    1.000
    C51      C        0.51946    0.47490    0.27298    1.000
    C52      C        0.64284    0.53657    0.27316    1.000
    C53      C        0.70450    0.47487    0.27301    1.000
    H54      H        0.47171    0.19435    0.27194    1.000
    H55      H        0.36224    0.30372    0.27219    1.000
    H56      H        0.47169    0.52264    0.27279    1.000
    H57      H        0.69060    0.63208    0.27311    1.000
    H58      H        0.80002    0.52263    0.27285    1.000
    H59      H        0.69060    0.30370    0.27226    1.000
