# CIF file generated by openbabel 3.1.0, see https://openbabel.org
data_I
_chemical_name_common ''
_cell_length_a 13.105
_cell_length_b 13.105
_cell_length_c 23.0122
_cell_angle_alpha 90
_cell_angle_beta 90
_cell_angle_gamma 120
loop_
    _atom_site_label
    _atom_site_type_symbol
    _atom_site_fract_x
    _atom_site_fract_y
    _atom_site_fract_z
    _atom_site_occupancy
    Mo0      Mo       0.16671    0.08345    0.05997    1.000
    S1       S        0.08323    0.16659    0.99097    1.000
    S2       S        0.08356    0.16704    0.12888    1.000
    Mo3      Mo       0.41666    0.08345    0.05996    1.000
    S4       S        0.33319    0.16648    0.99091    1.000
    S5       S        0.33354    0.16718    0.12888    1.000
    Mo6      Mo       0.66671    0.08351    0.05998    1.000
    S7       S        0.58327    0.16662    0.99097    1.000
    S8       S        0.58338    0.16703    0.12887    1.000
    Mo9      Mo       0.91669    0.08351    0.05999    1.000
    S10      S        0.83337    0.16684    0.99102    1.000
    S11      S        0.83336    0.16684    0.12898    1.000
    Mo12     Mo       0.16673    0.33349    0.05967    1.000
    S13      S        0.08324    0.41689    0.99096    1.000
    S14      S        0.08357    0.41680    0.12887    1.000
    Mo15     Mo       0.41671    0.33350    0.05954    1.000
    S16      S        0.33329    0.41675    0.99049    1.000
    S17      S        0.33348    0.41690    0.12832    1.000
    Mo18     Mo       0.66668    0.33350    0.05969    1.000
    S19      S        0.58340    0.41678    0.99052    1.000
    S20      S        0.58332    0.41687    0.12839    1.000
    Mo21     Mo       0.91669    0.33349    0.05998    1.000
    S22      S        0.83357    0.41691    0.99097    1.000
    S23      S        0.83316    0.41681    0.12887    1.000
    Mo24     Mo       0.16672    0.58352    0.05994    1.000
    S25      S        0.08338    0.66684    0.99100    1.000
    S26      S        0.08340    0.66685    0.12893    1.000
    Mo27     Mo       0.41671    0.58348    0.05949    1.000
    S28      S        0.33320    0.66699    0.99087    1.000
    S29      S        0.33357    0.66663    0.12884    1.000
    Mo30     Mo       0.66669    0.58347    0.05953    1.000
    S31      S        0.58344    0.66691    0.99048    1.000
    S32      S        0.58330    0.66671    0.12830    1.000
    Mo33     Mo       0.91673    0.58353    0.05996    1.000
    S34      S        0.83371    0.66700    0.99090    1.000
    S35      S        0.83300    0.66664    0.12887    1.000
    Mo36     Mo       0.16671    0.83347    0.05995    1.000
    S37      S        0.08339    0.91679    0.99101    1.000
    S38      S        0.08340    0.91677    0.12894    1.000
    Mo39     Mo       0.41667    0.83348    0.05995    1.000
    S40      S        0.33334    0.91681    0.99100    1.000
    S41      S        0.33333    0.91677    0.12893    1.000
    Mo42     Mo       0.66670    0.83347    0.05967    1.000
    S43      S        0.58330    0.91696    0.99097    1.000
    S44      S        0.58339    0.91663    0.12887    1.000
    Mo45     Mo       0.91674    0.83348    0.05996    1.000
    S46      S        0.83360    0.91697    0.99097    1.000
    S47      S        0.83315    0.91663    0.12888    1.000
    C48      C        0.39093    0.39814    0.27891    1.000
    C49      C        0.39094    0.50511    0.27854    1.000
    C50      C        0.49768    0.61182    0.27840    1.000
    C51      C        0.60463    0.61185    0.27864    1.000
    C52      C        0.60463    0.50512    0.27902    1.000
    C53      C        0.49769    0.39817    0.27915    1.000
    H54      H        0.30823    0.50512    0.27820    1.000
    H55      H        0.49771    0.69456    0.27795    1.000
    H56      H        0.68733    0.69457    0.27832    1.000
    H57      H        0.68736    0.50514    0.27905    1.000
    H58      H        0.49773    0.31547    0.27925    1.000
    H59      H        0.30822    0.31542    0.27878    1.000
