# CIF file generated by openbabel 3.1.0, see https://openbabel.org
data_I
_chemical_name_common ''
_cell_length_a 13.105
_cell_length_b 13.105
_cell_length_c 23.0122
_cell_angle_alpha 90
_cell_angle_beta 90
_cell_angle_gamma 120
loop_
    _atom_site_label
    _atom_site_type_symbol
    _atom_site_fract_x
    _atom_site_fract_y
    _atom_site_fract_z
    _atom_site_occupancy
    Mo0      Mo       0.16663    0.08341    0.05934    1.000
    S1       S        0.08331    0.16673    0.99037    1.000
    S2       S        0.08327    0.16676    0.12828    1.000
    Mo3      Mo       0.41664    0.08343    0.05934    1.000
    S4       S        0.33320    0.16657    0.99033    1.000
    S5       S        0.33344    0.16696    0.12828    1.000
    Mo6      Mo       0.66662    0.08341    0.05934    1.000
    S7       S        0.58321    0.16656    0.99033    1.000
    S8       S        0.58337    0.16696    0.12828    1.000
    Mo9      Mo       0.91660    0.08337    0.05929    1.000
    S10      S        0.83326    0.16673    0.99037    1.000
    S11      S        0.83333    0.16676    0.12828    1.000
    Mo12     Mo       0.16666    0.33343    0.05929    1.000
    S13      S        0.08331    0.41677    0.99037    1.000
    S14      S        0.08328    0.41671    0.12828    1.000
    Mo15     Mo       0.41669    0.33344    0.05911    1.000
    S16      S        0.33318    0.41669    0.99022    1.000
    S17      S        0.33355    0.41688    0.12822    1.000
    Mo18     Mo       0.66660    0.33344    0.05911    1.000
    S19      S        0.58319    0.41655    0.98995    1.000
    S20      S        0.58338    0.41691    0.12780    1.000
    Mo21     Mo       0.91661    0.33343    0.05929    1.000
    S22      S        0.83335    0.41668    0.99022    1.000
    S23      S        0.83317    0.41688    0.12822    1.000
    Mo24     Mo       0.16663    0.58341    0.05934    1.000
    S25      S        0.08348    0.66684    0.99033    1.000
    S26      S        0.08308    0.66668    0.12828    1.000
    Mo27     Mo       0.41669    0.58344    0.05911    1.000
    S28      S        0.33320    0.66684    0.99034    1.000
    S29      S        0.33344    0.66667    0.12828    1.000
    Mo30     Mo       0.66663    0.58340    0.05883    1.000
    S31      S        0.58320    0.66684    0.98995    1.000
    S32      S        0.58338    0.66664    0.12779    1.000
    Mo33     Mo       0.91660    0.58344    0.05910    1.000
    S34      S        0.83349    0.66684    0.98995    1.000
    S35      S        0.83312    0.66664    0.12779    1.000
    Mo36     Mo       0.16661    0.83341    0.05934    1.000
    S37      S        0.08347    0.91684    0.99034    1.000
    S38      S        0.08308    0.91660    0.12828    1.000
    Mo39     Mo       0.41663    0.83341    0.05935    1.000
    S40      S        0.33330    0.91675    0.99041    1.000
    S41      S        0.33330    0.91675    0.12831    1.000
    Mo42     Mo       0.66660    0.83335    0.05911    1.000
    S43      S        0.58321    0.91684    0.99034    1.000
    S44      S        0.58337    0.91660    0.12828    1.000
    Mo45     Mo       0.91659    0.83335    0.05911    1.000
    S46      S        0.83335    0.91685    0.99023    1.000
    S47      S        0.83316    0.91649    0.12823    1.000
    C48      C        0.72820    0.52483    0.28124    1.000
    C49      C        0.60483    0.46319    0.28124    1.000
    C50      C        0.54303    0.52478    0.28123    1.000
    C51      C        0.60483    0.64818    0.28125    1.000
    C52      C        0.72821    0.70990    0.28121    1.000
    C53      C        0.78992    0.64822    0.28124    1.000
    H54      H        0.55710    0.36768    0.28110    1.000
    H55      H        0.44751    0.47703    0.28099    1.000
    H56      H        0.55711    0.69597    0.28113    1.000
    H57      H        0.77594    0.80543    0.28093    1.000
    H58      H        0.88544    0.69598    0.28112    1.000
    H59      H        0.77593    0.47703    0.28103    1.000
