# CIF file generated by openbabel 3.1.0, see https://openbabel.org
data_I
_chemical_name_common ''
_cell_length_a 13.105
_cell_length_b 13.105
_cell_length_c 23.0122
_cell_angle_alpha 90
_cell_angle_beta 90
_cell_angle_gamma 120
loop_
    _atom_site_label
    _atom_site_type_symbol
    _atom_site_fract_x
    _atom_site_fract_y
    _atom_site_fract_z
    _atom_site_occupancy
    Mo0      Mo       0.16634    0.08309    0.05940    1.000
    S1       S        0.08291    0.16626    0.99041    1.000
    S2       S        0.08316    0.16662    0.12833    1.000
    Mo3      Mo       0.41631    0.08309    0.05939    1.000
    S4       S        0.33288    0.16620    0.99036    1.000
    S5       S        0.33314    0.16671    0.12834    1.000
    Mo6      Mo       0.66632    0.08309    0.05940    1.000
    S7       S        0.58291    0.16627    0.99041    1.000
    S8       S        0.58302    0.16660    0.12833    1.000
    Mo9      Mo       0.91633    0.08309    0.05940    1.000
    S10      S        0.83299    0.16642    0.99047    1.000
    S11      S        0.83299    0.16644    0.12836    1.000
    Mo12     Mo       0.16639    0.33312    0.05917    1.000
    S13      S        0.08291    0.41648    0.99039    1.000
    S14      S        0.08317    0.41642    0.12832    1.000
    Mo15     Mo       0.41635    0.33312    0.05907    1.000
    S16      S        0.33295    0.41637    0.99004    1.000
    S17      S        0.33310    0.41650    0.12789    1.000
    Mo18     Mo       0.66629    0.33312    0.05918    1.000
    S19      S        0.58301    0.41639    0.99006    1.000
    S20      S        0.58296    0.41648    0.12792    1.000
    Mo21     Mo       0.91633    0.33310    0.05939    1.000
    S22      S        0.83314    0.41649    0.99040    1.000
    S23      S        0.83282    0.41642    0.12832    1.000
    Mo24     Mo       0.16635    0.58311    0.05936    1.000
    S25      S        0.08300    0.66644    0.99043    1.000
    S26      S        0.08301    0.66643    0.12834    1.000
    Mo27     Mo       0.41634    0.58307    0.05902    1.000
    S28      S        0.33289    0.66654    0.99031    1.000
    S29      S        0.33314    0.66628    0.12830    1.000
    Mo30     Mo       0.66630    0.58307    0.05905    1.000
    S31      S        0.58304    0.66647    0.99003    1.000
    S32      S        0.58292    0.66630    0.12787    1.000
    Mo33     Mo       0.91633    0.58311    0.05938    1.000
    S34      S        0.83322    0.66655    0.99034    1.000
    S35      S        0.83271    0.66628    0.12832    1.000
    Mo36     Mo       0.16633    0.83308    0.05938    1.000
    S37      S        0.08301    0.91643    0.99045    1.000
    S38      S        0.08301    0.91640    0.12836    1.000
    Mo39     Mo       0.41631    0.83307    0.05937    1.000
    S40      S        0.33299    0.91643    0.99044    1.000
    S41      S        0.33298    0.91639    0.12835    1.000
    Mo42     Mo       0.66630    0.83302    0.05917    1.000
    S43      S        0.58294    0.91652    0.99040    1.000
    S44      S        0.58301    0.91624    0.12832    1.000
    Mo45     Mo       0.91633    0.83307    0.05939    1.000
    S46      S        0.83316    0.91652    0.99041    1.000
    S47      S        0.83280    0.91626    0.12833    1.000
    C48      C        0.37590    0.44496    0.28096    1.000
    C49      C        0.43756    0.56834    0.28093    1.000
    C50      C        0.56096    0.63000    0.28099    1.000
    C51      C        0.62266    0.56833    0.28098    1.000
    C52      C        0.56094    0.44497    0.28096    1.000
    C53      C        0.43756    0.38322    0.28097    1.000
    H54      H        0.38979    0.61608    0.28058    1.000
    H55      H        0.60869    0.72551    0.28084    1.000
    H56      H        0.71817    0.61608    0.28072    1.000
    H57      H        0.60868    0.39719    0.28077    1.000
    H58      H        0.38978    0.28770    0.28072    1.000
    H59      H        0.28038    0.39720    0.28078    1.000
