# CIF file generated by openbabel 3.1.0, see https://openbabel.org
data_I
_chemical_name_common ''
_cell_length_a 13.105
_cell_length_b 13.105
_cell_length_c 23.0122
_cell_angle_alpha 90
_cell_angle_beta 90
_cell_angle_gamma 120
loop_
    _atom_site_label
    _atom_site_type_symbol
    _atom_site_fract_x
    _atom_site_fract_y
    _atom_site_fract_z
    _atom_site_occupancy
    Mo0      Mo       0.16663    0.08340    0.05937    1.000
    S1       S        0.08330    0.16671    0.99040    1.000
    S2       S        0.08329    0.16673    0.12833    1.000
    Mo3      Mo       0.41662    0.08338    0.05939    1.000
    S4       S        0.33323    0.16655    0.99038    1.000
    S5       S        0.33342    0.16692    0.12831    1.000
    Mo6      Mo       0.66664    0.08340    0.05937    1.000
    S7       S        0.58319    0.16655    0.99038    1.000
    S8       S        0.58337    0.16692    0.12830    1.000
    Mo9      Mo       0.91663    0.08339    0.05934    1.000
    S10      S        0.83329    0.16671    0.99040    1.000
    S11      S        0.83332    0.16673    0.12832    1.000
    Mo12     Mo       0.16663    0.33338    0.05933    1.000
    S13      S        0.08331    0.41673    0.99040    1.000
    S14      S        0.08329    0.41670    0.12832    1.000
    Mo15     Mo       0.41665    0.33339    0.05917    1.000
    S16      S        0.33315    0.41664    0.99029    1.000
    S17      S        0.33352    0.41684    0.12826    1.000
    Mo18     Mo       0.66661    0.33339    0.05916    1.000
    S19      S        0.58324    0.41660    0.99006    1.000
    S20      S        0.58335    0.41680    0.12791    1.000
    Mo21     Mo       0.91664    0.33338    0.05933    1.000
    S22      S        0.83338    0.41665    0.99028    1.000
    S23      S        0.83319    0.41683    0.12826    1.000
    Mo24     Mo       0.16663    0.58338    0.05936    1.000
    S25      S        0.08349    0.66684    0.99038    1.000
    S26      S        0.08311    0.66665    0.12830    1.000
    Mo27     Mo       0.41665    0.58341    0.05916    1.000
    S28      S        0.33323    0.66684    0.99038    1.000
    S29      S        0.33342    0.66665    0.12831    1.000
    Mo30     Mo       0.66663    0.58338    0.05897    1.000
    S31      S        0.58324    0.66678    0.99005    1.000
    S32      S        0.58332    0.66667    0.12788    1.000
    Mo33     Mo       0.91664    0.58341    0.05916    1.000
    S34      S        0.83342    0.66679    0.99005    1.000
    S35      S        0.83322    0.66666    0.12790    1.000
    Mo36     Mo       0.16666    0.83341    0.05939    1.000
    S37      S        0.08347    0.91679    0.99039    1.000
    S38      S        0.08311    0.91660    0.12831    1.000
    Mo39     Mo       0.41662    0.83341    0.05939    1.000
    S40      S        0.33330    0.91673    0.99043    1.000
    S41      S        0.33330    0.91674    0.12839    1.000
    Mo42     Mo       0.66661    0.83337    0.05917    1.000
    S43      S        0.58318    0.91679    0.99038    1.000
    S44      S        0.58337    0.91660    0.12831    1.000
    Mo45     Mo       0.91663    0.83336    0.05917    1.000
    S46      S        0.83337    0.91686    0.99030    1.000
    S47      S        0.83318    0.91649    0.12827    1.000
    C48      C        0.66653    0.47977    0.28126    1.000
    C49      C        0.55962    0.47980    0.28116    1.000
    C50      C        0.55964    0.58658    0.28094    1.000
    C51      C        0.66655    0.69352    0.28085    1.000
    C52      C        0.77329    0.69347    0.28095    1.000
    C53      C        0.77328    0.58653    0.28115    1.000
    H54      H        0.47689    0.39710    0.28103    1.000
    H55      H        0.47690    0.58655    0.28060    1.000
    H56      H        0.66656    0.77623    0.28042    1.000
    H57      H        0.85603    0.77618    0.28063    1.000
    H58      H        0.85600    0.58655    0.28099    1.000
    H59      H        0.66654    0.39704    0.28122    1.000
