# CIF file generated by openbabel 3.1.0, see https://openbabel.org
data_I
_chemical_name_common ''
_cell_length_a 13.105
_cell_length_b 13.105
_cell_length_c 23.0122
_cell_angle_alpha 90
_cell_angle_beta 90
_cell_angle_gamma 120
loop_
    _atom_site_label
    _atom_site_type_symbol
    _atom_site_fract_x
    _atom_site_fract_y
    _atom_site_fract_z
    _atom_site_occupancy
    Mo0      Mo       0.17101    0.07854    0.06064    1.000
    S1       S        0.08767    0.16187    0.99173    1.000
    S2       S        0.08770    0.16189    0.12966    1.000
    Mo3      Mo       0.42096    0.07849    0.06042    1.000
    S4       S        0.33753    0.16186    0.99158    1.000
    S5       S        0.33782    0.16188    0.12955    1.000
    Mo6      Mo       0.67099    0.07846    0.06026    1.000
    S7       S        0.58752    0.16178    0.99128    1.000
    S8       S        0.58780    0.16167    0.12912    1.000
    Mo9      Mo       0.92099    0.07849    0.06066    1.000
    S10      S        0.83785    0.16175    0.99149    1.000
    S11      S        0.83747    0.16192    0.12943    1.000
    Mo12     Mo       0.17098    0.32854    0.06071    1.000
    S13      S        0.08793    0.41204    0.99168    1.000
    S14      S        0.08728    0.41169    0.12960    1.000
    Mo15     Mo       0.42103    0.32854    0.06054    1.000
    S16      S        0.33758    0.41206    0.99178    1.000
    S17      S        0.33771    0.41164    0.12976    1.000
    Mo18     Mo       0.67093    0.32850    0.06030    1.000
    S19      S        0.58757    0.41199    0.99139    1.000
    S20      S        0.58767    0.41170    0.12923    1.000
    Mo21     Mo       0.92097    0.32852    0.06037    1.000
    S22      S        0.83774    0.41205    0.99141    1.000
    S23      S        0.83758    0.41164    0.12927    1.000
    Mo24     Mo       0.17092    0.57852    0.06077    1.000
    S25      S        0.08773    0.66190    0.99174    1.000
    S26      S        0.08736    0.66175    0.12969    1.000
    Mo27     Mo       0.42094    0.57849    0.06085    1.000
    S28      S        0.33758    0.66173    0.99184    1.000
    S29      S        0.33760    0.66191    0.12978    1.000
    Mo30     Mo       0.67093    0.57844    0.06059    1.000
    S31      S        0.58743    0.66183    0.99179    1.000
    S32      S        0.58776    0.66175    0.12977    1.000
    Mo33     Mo       0.92091    0.57852    0.06058    1.000
    S34      S        0.83764    0.66196    0.99169    1.000
    S35      S        0.83754    0.66177    0.12967    1.000
    Mo36     Mo       0.17090    0.82849    0.06070    1.000
    S37      S        0.08756    0.91183    0.99174    1.000
    S38      S        0.08769    0.91191    0.12966    1.000
    Mo39     Mo       0.42091    0.82848    0.06069    1.000
    S40      S        0.33741    0.91152    0.99165    1.000
    S41      S        0.33773    0.91211    0.12958    1.000
    Mo42     Mo       0.67093    0.82846    0.06070    1.000
    S43      S        0.58744    0.91145    0.99161    1.000
    S44      S        0.58774    0.91217    0.12951    1.000
    Mo45     Mo       0.92094    0.82851    0.06070    1.000
    S46      S        0.83761    0.91178    0.99175    1.000
    S47      S        0.83757    0.91184    0.12969    1.000
    C48      C        0.69319    0.35435    0.26951    1.000
    C49      C        0.57364    0.26827    0.27131    1.000
    C50      C        0.48796    0.30154    0.27738    1.000
    C51      C        0.52191    0.42097    0.28184    1.000
    C52      C        0.64144    0.50710    0.28016    1.000
    C53      C        0.72710    0.47378    0.27386    1.000
    H54      H        0.54750    0.17587    0.26779    1.000
    H55      H        0.39546    0.23485    0.27855    1.000
    H56      H        0.45563    0.44680    0.28660    1.000
    H57      H        0.66761    0.59950    0.28361    1.000
    H58      H        0.81961    0.54051    0.27229    1.000
    H59      H        0.75940    0.32851    0.26452    1.000
