# CIF file generated by openbabel 3.1.0, see https://openbabel.org
data_I
_chemical_name_common ''
_cell_length_a 13.105
_cell_length_b 13.105
_cell_length_c 23.0122
_cell_angle_alpha 90
_cell_angle_beta 90
_cell_angle_gamma 120
loop_
    _atom_site_label
    _atom_site_type_symbol
    _atom_site_fract_x
    _atom_site_fract_y
    _atom_site_fract_z
    _atom_site_occupancy
    Mo0      Mo       0.16641    0.08318    0.05927    1.000
    S1       S        0.08294    0.16642    0.99033    1.000
    S2       S        0.08333    0.16668    0.12834    1.000
    Mo3      Mo       0.41635    0.08318    0.05927    1.000
    S4       S        0.33293    0.16628    0.99018    1.000
    S5       S        0.33309    0.16660    0.12814    1.000
    Mo6      Mo       0.66632    0.08314    0.05943    1.000
    S7       S        0.58306    0.16642    0.99034    1.000
    S8       S        0.58293    0.16667    0.12835    1.000
    Mo9      Mo       0.91640    0.08314    0.05942    1.000
    S10      S        0.83302    0.16646    0.99051    1.000
    S11      S        0.83301    0.16645    0.12837    1.000
    Mo12     Mo       0.16644    0.33319    0.05918    1.000
    S13      S        0.08296    0.41657    0.99041    1.000
    S14      S        0.08320    0.41640    0.12840    1.000
    Mo15     Mo       0.41634    0.33312    0.05902    1.000
    S16      S        0.33295    0.41654    0.99010    1.000
    S17      S        0.33308    0.41634    0.12790    1.000
    Mo18     Mo       0.66632    0.33319    0.05919    1.000
    S19      S        0.58317    0.41654    0.99011    1.000
    S20      S        0.58282    0.41634    0.12790    1.000
    Mo21     Mo       0.91635    0.33313    0.05945    1.000
    S22      S        0.83318    0.41657    0.99041    1.000
    S23      S        0.83278    0.41640    0.12841    1.000
    Mo24     Mo       0.16638    0.58312    0.05946    1.000
    S25      S        0.08303    0.66648    0.99053    1.000
    S26      S        0.08302    0.66646    0.12839    1.000
    Mo27     Mo       0.41637    0.58306    0.05921    1.000
    S28      S        0.33295    0.66652    0.99042    1.000
    S29      S        0.33314    0.66627    0.12843    1.000
    Mo30     Mo       0.66627    0.58306    0.05921    1.000
    S31      S        0.58306    0.66654    0.99029    1.000
    S32      S        0.58294    0.66630    0.12827    1.000
    Mo33     Mo       0.91631    0.58312    0.05946    1.000
    S34      S        0.83315    0.66652    0.99042    1.000
    S35      S        0.83271    0.66628    0.12843    1.000
    Mo36     Mo       0.16637    0.83317    0.05945    1.000
    S37      S        0.08296    0.91637    0.99044    1.000
    S38      S        0.08310    0.91665    0.12837    1.000
    Mo39     Mo       0.41636    0.83310    0.05945    1.000
    S40      S        0.33300    0.91638    0.99044    1.000
    S41      S        0.33313    0.91665    0.12837    1.000
    Mo42     Mo       0.66632    0.83307    0.05934    1.000
    S43      S        0.58297    0.91644    0.99046    1.000
    S44      S        0.58302    0.91639    0.12840    1.000
    Mo45     Mo       0.91632    0.83310    0.05944    1.000
    S46      S        0.83305    0.91644    0.99046    1.000
    S47      S        0.83295    0.91639    0.12839    1.000
    C48      C        0.52306    0.35841    0.28082    1.000
    C49      C        0.39966    0.29674    0.28049    1.000
    C50      C        0.33798    0.35844    0.28072    1.000
    C51      C        0.39959    0.48183    0.28091    1.000
    C52      C        0.52299    0.54348    0.28090    1.000
    C53      C        0.58470    0.48180    0.28102    1.000
    H54      H        0.35190    0.20125    0.27985    1.000
    H55      H        0.24245    0.31063    0.28041    1.000
    H56      H        0.35182    0.52959    0.28078    1.000
    H57      H        0.57076    0.63897    0.28061    1.000
    H58      H        0.68024    0.52961    0.28098    1.000
    H59      H        0.57084    0.31065    0.28060    1.000
