# CIF file generated by openbabel 3.1.0, see https://openbabel.org
data_I
_chemical_name_common ''
_cell_length_a 13.105
_cell_length_b 13.105
_cell_length_c 23.0122
_cell_angle_alpha 90
_cell_angle_beta 90
_cell_angle_gamma 120
loop_
    _atom_site_label
    _atom_site_type_symbol
    _atom_site_fract_x
    _atom_site_fract_y
    _atom_site_fract_z
    _atom_site_occupancy
    Mo0      Mo       0.16638    0.08303    0.05996    1.000
    S1       S        0.08277    0.16616    0.99104    1.000
    S2       S        0.08334    0.16657    0.12903    1.000
    Mo3      Mo       0.41632    0.08303    0.05996    1.000
    S4       S        0.33281    0.16594    0.99078    1.000
    S5       S        0.33313    0.16659    0.12875    1.000
    Mo6      Mo       0.66626    0.08291    0.06017    1.000
    S7       S        0.58306    0.16616    0.99104    1.000
    S8       S        0.58290    0.16657    0.12903    1.000
    Mo9      Mo       0.91633    0.08291    0.06017    1.000
    S10      S        0.83297    0.16627    0.99129    1.000
    S11      S        0.83292    0.16617    0.12915    1.000
    Mo12     Mo       0.16637    0.33303    0.05983    1.000
    S13      S        0.08279    0.41645    0.99118    1.000
    S14      S        0.08319    0.41617    0.12916    1.000
    Mo15     Mo       0.41629    0.33293    0.05947    1.000
    S16      S        0.33280    0.41641    0.99064    1.000
    S17      S        0.33312    0.41613    0.12833    1.000
    Mo18     Mo       0.66633    0.33303    0.05983    1.000
    S19      S        0.58327    0.41640    0.99063    1.000
    S20      S        0.58269    0.41614    0.12831    1.000
    Mo21     Mo       0.91630    0.33293    0.06025    1.000
    S22      S        0.83333    0.41645    0.99118    1.000
    S23      S        0.83265    0.41618    0.12916    1.000
    Mo24     Mo       0.16631    0.58295    0.06025    1.000
    S25      S        0.08302    0.66636    0.99134    1.000
    S26      S        0.08303    0.66639    0.12920    1.000
    Mo27     Mo       0.41633    0.58290    0.05981    1.000
    S28      S        0.33278    0.66640    0.99116    1.000
    S29      S        0.33315    0.66606    0.12915    1.000
    Mo30     Mo       0.66624    0.58291    0.05980    1.000
    S31      S        0.58305    0.66644    0.99089    1.000
    S32      S        0.58287    0.66605    0.12889    1.000
    Mo33     Mo       0.91631    0.58295    0.06025    1.000
    S34      S        0.83330    0.66640    0.99115    1.000
    S35      S        0.83258    0.66605    0.12914    1.000
    Mo36     Mo       0.16637    0.83307    0.06023    1.000
    S37      S        0.08292    0.91617    0.99119    1.000
    S38      S        0.08308    0.91657    0.12912    1.000
    Mo39     Mo       0.41630    0.83293    0.06020    1.000
    S40      S        0.33293    0.91618    0.99119    1.000
    S41      S        0.33316    0.91657    0.12912    1.000
    Mo42     Mo       0.66626    0.83285    0.06003    1.000
    S43      S        0.58287    0.91625    0.99120    1.000
    S44      S        0.58298    0.91615    0.12913    1.000
    Mo45     Mo       0.91630    0.83292    0.06019    1.000
    S46      S        0.83305    0.91625    0.99120    1.000
    S47      S        0.83284    0.91615    0.12913    1.000
    C48      C        0.46143    0.31392    0.27763    1.000
    C49      C        0.35460    0.31391    0.27774    1.000
    C50      C        0.35468    0.42083    0.27818    1.000
    C51      C        0.46151    0.52769    0.27838    1.000
    C52      C        0.56840    0.52770    0.27823    1.000
    C53      C        0.56830    0.42082    0.27792    1.000
    H54      H        0.27185    0.23120    0.27738    1.000
    H55      H        0.27197    0.42084    0.27794    1.000
    H56      H        0.46148    0.61040    0.27850    1.000
    H57      H        0.65114    0.61040    0.27825    1.000
    H58      H        0.65100    0.42077    0.27745    1.000
    H59      H        0.46149    0.23123    0.27715    1.000
