# CIF file generated by openbabel 3.1.0, see https://openbabel.org
data_I
_chemical_name_common ''
_cell_length_a 13.105
_cell_length_b 13.105
_cell_length_c 23.0122
_cell_angle_alpha 90
_cell_angle_beta 90
_cell_angle_gamma 120
loop_
    _atom_site_label
    _atom_site_type_symbol
    _atom_site_fract_x
    _atom_site_fract_y
    _atom_site_fract_z
    _atom_site_occupancy
    C0       C        0.36988    0.44111    0.44886    1.000
    C1       C        0.43157    0.56444    0.44885    1.000
    C2       C        0.55490    0.62610    0.44885    1.000
    C3       C        0.61659    0.56446    0.44886    1.000
    C4       C        0.55489    0.44114    0.44886    1.000
    C5       C        0.43158    0.37948    0.44886    1.000
    H6       H        0.38385    0.61219    0.44889    1.000
    H7       H        0.60262    0.72157    0.44890    1.000
    H8       H        0.71205    0.61222    0.44889    1.000
    H9       H        0.60261    0.39341    0.44890    1.000
    H10      H        0.38386    0.28403    0.44891    1.000
    H11      H        0.27442    0.39339    0.44889    1.000
