# CIF file generated by openbabel 3.1.0, see https://openbabel.org
data_I
_chemical_name_common ''
_cell_length_a 13.105
_cell_length_b 13.105
_cell_length_c 23.0122
_cell_angle_alpha 90
_cell_angle_beta 90
_cell_angle_gamma 120
loop_
    _atom_site_label
    _atom_site_type_symbol
    _atom_site_fract_x
    _atom_site_fract_y
    _atom_site_fract_z
    _atom_site_occupancy
    Mo0      Mo       0.16678    0.08349    0.06577    1.000
    S1       S        0.08347    0.16688    0.99686    1.000
    S2       S        0.08339    0.16682    0.13477    1.000
    Mo3      Mo       0.41705    0.08382    0.06582    1.000
    S4       S        0.33352    0.16688    0.99682    1.000
    S5       S        0.33323    0.16679    0.13471    1.000
    Mo6      Mo       0.66709    0.08390    0.06577    1.000
    S7       S        0.58372    0.16726    0.99681    1.000
    S8       S        0.58383    0.16708    0.13471    1.000
    Mo9      Mo       0.91685    0.08370    0.06579    1.000
    S10      S        0.83378    0.16732    0.99686    1.000
    S11      S        0.83374    0.16725    0.13477    1.000
    Mo12     Mo       0.16672    0.33355    0.06584    1.000
    S13      S        0.08355    0.41712    0.99691    1.000
    S14      S        0.08351    0.41702    0.13481    1.000
    Mo15     Mo       0.41675    0.33357    0.06582    1.000
    S16      S        0.33332    0.41683    0.99690    1.000
    S17      S        0.33341    0.41683    0.13479    1.000
    Mo18     Mo       0.66676    0.33385    0.06581    1.000
    S19      S        0.58333    0.41710    0.99680    1.000
    S20      S        0.58352    0.41739    0.13471    1.000
    Mo21     Mo       0.91690    0.33391    0.06584    1.000
    S22      S        0.83344    0.41725    0.99690    1.000
    S23      S        0.83336    0.41718    0.13478    1.000
    Mo24     Mo       0.16682    0.58372    0.06589    1.000
    S25      S        0.08352    0.66700    0.99691    1.000
    S26      S        0.08343    0.66702    0.13482    1.000
    Mo27     Mo       0.41664    0.58364    0.06583    1.000
    S28      S        0.33340    0.66704    0.99690    1.000
    S29      S        0.33352    0.66710    0.13482    1.000
    Mo30     Mo       0.66667    0.58384    0.06576    1.000
    S31      S        0.58323    0.66709    0.99685    1.000
    S32      S        0.58330    0.66712    0.13476    1.000
    Mo33     Mo       0.91678    0.58387    0.06584    1.000
    S34      S        0.83338    0.66715    0.99686    1.000
    S35      S        0.83339    0.66722    0.13475    1.000
    Mo36     Mo       0.16696    0.83365    0.06585    1.000
    S37      S        0.08354    0.91680    0.99686    1.000
    S38      S        0.08349    0.91683    0.13478    1.000
    Mo39     Mo       0.41701    0.83377    0.06584    1.000
    S40      S        0.33375    0.91712    0.99691    1.000
    S41      S        0.33377    0.91720    0.13480    1.000
    Mo42     Mo       0.66690    0.83378    0.06577    1.000
    S43      S        0.58369    0.91720    0.99685    1.000
    S44      S        0.58375    0.91716    0.13475    1.000
    Mo45     Mo       0.91683    0.83376    0.06578    1.000
    S46      S        0.83354    0.91709    0.99678    1.000
    S47      S        0.83352    0.91707    0.13472    1.000
    H48      H        0.58715    0.31288    0.26188    1.000
    H49      H        0.47604    0.16300    0.26190    1.000
    H50      H        0.43727    0.27411    0.26176    1.000
    C51      C        0.50010    0.25001    0.27911    1.000
    H52      H        0.41317    0.18648    0.36306    1.000
    H53      H        0.52297    0.33686    0.36304    1.000
    H54      H        0.56354    0.22704    0.36318    1.000
    C55      C        0.49995    0.25011    0.34599    1.000
