# CIF file generated by openbabel 3.1.0, see https://openbabel.org
data_I
_chemical_name_common ''
_cell_length_a 13.105
_cell_length_b 13.105
_cell_length_c 23.0122
_cell_angle_alpha 90
_cell_angle_beta 90
_cell_angle_gamma 120
loop_
    _atom_site_label
    _atom_site_type_symbol
    _atom_site_fract_x
    _atom_site_fract_y
    _atom_site_fract_z
    _atom_site_occupancy
    Mo0      Mo       0.16511    0.08213    0.06840    1.000
    S1       S        0.08174    0.16532    0.99937    1.000
    S2       S        0.08179    0.16549    0.13731    1.000
    Mo3      Mo       0.41503    0.08206    0.06843    1.000
    S4       S        0.33173    0.16533    0.99941    1.000
    S5       S        0.33183    0.16557    0.13738    1.000
    Mo6      Mo       0.66505    0.08211    0.06839    1.000
    S7       S        0.58160    0.16530    0.99941    1.000
    S8       S        0.58172    0.16552    0.13736    1.000
    Mo9      Mo       0.91507    0.08207    0.06837    1.000
    S10      S        0.83175    0.16545    0.99943    1.000
    S11      S        0.83178    0.16545    0.13732    1.000
    Mo12     Mo       0.16498    0.33202    0.06824    1.000
    S13      S        0.08174    0.41551    0.99940    1.000
    S14      S        0.08180    0.41536    0.13733    1.000
    Mo15     Mo       0.41511    0.33207    0.06826    1.000
    S16      S        0.33182    0.41550    0.99933    1.000
    S17      S        0.33150    0.41513    0.13715    1.000
    Mo18     Mo       0.66504    0.33205    0.06828    1.000
    S19      S        0.58177    0.41545    0.99926    1.000
    S20      S        0.58191    0.41561    0.13710    1.000
    Mo21     Mo       0.91509    0.33211    0.06838    1.000
    S22      S        0.83174    0.41536    0.99939    1.000
    S23      S        0.83160    0.41534    0.13732    1.000
    Mo24     Mo       0.16510    0.58206    0.06842    1.000
    S25      S        0.08176    0.66540    0.99945    1.000
    S26      S        0.08164    0.66533    0.13734    1.000
    Mo27     Mo       0.41509    0.58207    0.06840    1.000
    S28      S        0.33177    0.66545    0.99949    1.000
    S29      S        0.33175    0.66533    0.13742    1.000
    Mo30     Mo       0.66512    0.58216    0.06824    1.000
    S31      S        0.58170    0.66551    0.99941    1.000
    S32      S        0.58176    0.66525    0.13739    1.000
    Mo33     Mo       0.91501    0.58202    0.06835    1.000
    S34      S        0.83184    0.66549    0.99935    1.000
    S35      S        0.83167    0.66536    0.13730    1.000
    Mo36     Mo       0.16502    0.83206    0.06842    1.000
    S37      S        0.08176    0.91545    0.99946    1.000
    S38      S        0.08169    0.91545    0.13735    1.000
    Mo39     Mo       0.41505    0.83206    0.06846    1.000
    S40      S        0.33168    0.91535    0.99950    1.000
    S41      S        0.33168    0.91539    0.13740    1.000
    Mo42     Mo       0.66500    0.83203    0.06843    1.000
    S43      S        0.58168    0.91538    0.99949    1.000
    S44      S        0.58177    0.91546    0.13739    1.000
    Mo45     Mo       0.91504    0.83208    0.06838    1.000
    S46      S        0.83163    0.91538    0.99945    1.000
    S47      S        0.83170    0.91541    0.13735    1.000
    H48      H        0.58463    0.43290    0.27976    1.000
    H49      H        0.49478    0.34610    0.33772    1.000
    H50      H        0.44493    0.30943    0.26533    1.000
    C51      C        0.49370    0.38304    0.29529    1.000
    H52      H        0.34605    0.41163    0.31362    1.000
    H53      H        0.43819    0.50025    0.25683    1.000
    H54      H        0.48546    0.53437    0.32964    1.000
    C55      C        0.43763    0.46182    0.29911    1.000
