# CIF file generated by openbabel 3.1.0, see https://openbabel.org
data_I
_chemical_name_common ''
_cell_length_a 13.105
_cell_length_b 13.105
_cell_length_c 23.0122
_cell_angle_alpha 90
_cell_angle_beta 90
_cell_angle_gamma 120
loop_
    _atom_site_label
    _atom_site_type_symbol
    _atom_site_fract_x
    _atom_site_fract_y
    _atom_site_fract_z
    _atom_site_occupancy
    Mo0      Mo       0.16598    0.08227    0.06933    1.000
    S1       S        0.08257    0.16552    0.00040    1.000
    S2       S        0.08257    0.16546    0.13831    1.000
    Mo3      Mo       0.41592    0.08230    0.06931    1.000
    S4       S        0.33252    0.16544    0.00027    1.000
    S5       S        0.33281    0.16592    0.13823    1.000
    Mo6      Mo       0.66583    0.08227    0.06933    1.000
    S7       S        0.58247    0.16545    0.00028    1.000
    S8       S        0.58265    0.16590    0.13823    1.000
    Mo9      Mo       0.91587    0.08219    0.06934    1.000
    S10      S        0.83250    0.16552    0.00041    1.000
    S11      S        0.83244    0.16546    0.13831    1.000
    Mo12     Mo       0.16589    0.33213    0.06937    1.000
    S13      S        0.08246    0.41538    0.00045    1.000
    S14      S        0.08249    0.41541    0.13833    1.000
    Mo15     Mo       0.41596    0.33234    0.06900    1.000
    S16      S        0.33236    0.41561    0.00027    1.000
    S17      S        0.33283    0.41557    0.13824    1.000
    Mo18     Mo       0.66593    0.33234    0.06901    1.000
    S19      S        0.58265    0.41573    0.99989    1.000
    S20      S        0.58277    0.41603    0.13740    1.000
    Mo21     Mo       0.91580    0.33213    0.06937    1.000
    S22      S        0.83280    0.41560    0.00028    1.000
    S23      S        0.83231    0.41558    0.13825    1.000
    Mo24     Mo       0.16583    0.58210    0.06936    1.000
    S25      S        0.08264    0.66552    0.00037    1.000
    S26      S        0.08248    0.66548    0.13828    1.000
    Mo27     Mo       0.41587    0.58224    0.06925    1.000
    S28      S        0.33241    0.66551    0.00037    1.000
    S29      S        0.33254    0.66547    0.13827    1.000
    Mo30     Mo       0.66603    0.58251    0.06889    1.000
    S31      S        0.58243    0.66583    0.00017    1.000
    S32      S        0.58266    0.66552    0.13814    1.000
    Mo33     Mo       0.91592    0.58225    0.06925    1.000
    S34      S        0.83295    0.66584    0.00017    1.000
    S35      S        0.83242    0.66553    0.13814    1.000
    Mo36     Mo       0.16592    0.83220    0.06934    1.000
    S37      S        0.08271    0.91562    0.00038    1.000
    S38      S        0.08258    0.91555    0.13827    1.000
    Mo39     Mo       0.41580    0.83219    0.06934    1.000
    S40      S        0.33255    0.91558    0.00039    1.000
    S41      S        0.33258    0.91564    0.13830    1.000
    Mo42     Mo       0.66588    0.83229    0.06925    1.000
    S43      S        0.58243    0.91562    0.00038    1.000
    S44      S        0.58249    0.91555    0.13827    1.000
    Mo45     Mo       0.91595    0.83230    0.06925    1.000
    S46      S        0.83259    0.91565    0.00033    1.000
    S47      S        0.83251    0.91549    0.13824    1.000
    H48      H        0.61133    0.33106    0.26312    1.000
    H49      H        0.53665    0.31423    0.32945    1.000
    H50      H        0.47652    0.33089    0.26384    1.000
    C51      C        0.55880    0.35998    0.28766    1.000
    H52      H        0.57426    0.52304    0.32148    1.000
    H53      H        0.64652    0.54076    0.25440    1.000
    H54      H        0.70930    0.52376    0.31891    1.000
    C55      C        0.62604    0.49454    0.29610    1.000
