# CIF file generated by openbabel 3.1.0, see https://openbabel.org
data_I
_chemical_name_common ''
_cell_length_a 13.105
_cell_length_b 13.105
_cell_length_c 23.0122
_cell_angle_alpha 90
_cell_angle_beta 90
_cell_angle_gamma 120
loop_
    _atom_site_label
    _atom_site_type_symbol
    _atom_site_fract_x
    _atom_site_fract_y
    _atom_site_fract_z
    _atom_site_occupancy
    Mo0      Mo       0.16710    0.08468    0.06927    1.000
    S1       S        0.08379    0.16806    0.00034    1.000
    S2       S        0.08380    0.16802    0.13824    1.000
    Mo3      Mo       0.41709    0.08461    0.06920    1.000
    S4       S        0.33354    0.16765    0.00017    1.000
    S5       S        0.33393    0.16815    0.13813    1.000
    Mo6      Mo       0.66716    0.08467    0.06927    1.000
    S7       S        0.58369    0.16766    0.00017    1.000
    S8       S        0.58380    0.16813    0.13813    1.000
    Mo9      Mo       0.91711    0.08464    0.06928    1.000
    S10      S        0.83385    0.16806    0.00033    1.000
    S11      S        0.83379    0.16801    0.13824    1.000
    Mo12     Mo       0.16713    0.33471    0.06931    1.000
    S13      S        0.08385    0.41813    0.00041    1.000
    S14      S        0.08380    0.41803    0.13830    1.000
    Mo15     Mo       0.41694    0.33449    0.06890    1.000
    S16      S        0.33360    0.41809    0.00023    1.000
    S17      S        0.33398    0.41784    0.13819    1.000
    Mo18     Mo       0.66712    0.33449    0.06891    1.000
    S19      S        0.58373    0.41788    0.99988    1.000
    S20      S        0.58360    0.41767    0.13737    1.000
    Mo21     Mo       0.91715    0.33471    0.06931    1.000
    S22      S        0.83407    0.41809    0.00024    1.000
    S23      S        0.83343    0.41784    0.13820    1.000
    Mo24     Mo       0.16715    0.58473    0.06937    1.000
    S25      S        0.08379    0.66802    0.00040    1.000
    S26      S        0.08371    0.66802    0.13829    1.000
    Mo27     Mo       0.41713    0.58462    0.06929    1.000
    S28      S        0.33380    0.66802    0.00039    1.000
    S29      S        0.33389    0.66802    0.13829    1.000
    Mo30     Mo       0.66710    0.58462    0.06899    1.000
    S31      S        0.58367    0.66805    0.00026    1.000
    S32      S        0.58383    0.66773    0.13821    1.000
    Mo33     Mo       0.91706    0.58462    0.06930    1.000
    S34      S        0.83396    0.66805    0.00026    1.000
    S35      S        0.83348    0.66773    0.13821    1.000
    Mo36     Mo       0.16709    0.83469    0.06933    1.000
    S37      S        0.08368    0.91796    0.00039    1.000
    S38      S        0.08375    0.91807    0.13828    1.000
    Mo39     Mo       0.41717    0.83469    0.06933    1.000
    S40      S        0.33371    0.91785    0.00033    1.000
    S41      S        0.33382    0.91808    0.13824    1.000
    Mo42     Mo       0.66710    0.83458    0.06932    1.000
    S43      S        0.58384    0.91795    0.00039    1.000
    S44      S        0.58388    0.91806    0.13827    1.000
    Mo45     Mo       0.91705    0.83459    0.06932    1.000
    S46      S        0.83372    0.91788    0.00037    1.000
    S47      S        0.83375    0.91794    0.13827    1.000
    H48      H        0.56529    0.50794    0.26247    1.000
    H49      H        0.64167    0.52750    0.32850    1.000
    H50      H        0.70033    0.50852    0.26293    1.000
    C51      C        0.61861    0.48016    0.28714    1.000
    H52      H        0.60403    0.31879    0.32278    1.000
    H53      H        0.53130    0.29811    0.25558    1.000
    H54      H        0.46869    0.31739    0.31961    1.000
    C55      C        0.55185    0.34594    0.29682    1.000
