# CIF file generated by openbabel 3.1.0, see https://openbabel.org
data_I
_chemical_name_common ''
_cell_length_a 13.105
_cell_length_b 13.105
_cell_length_c 23.0122
_cell_angle_alpha 90
_cell_angle_beta 90
_cell_angle_gamma 120
loop_
    _atom_site_label
    _atom_site_type_symbol
    _atom_site_fract_x
    _atom_site_fract_y
    _atom_site_fract_z
    _atom_site_occupancy
    Mo0      Mo       0.16417    0.08267    0.06928    1.000
    S1       S        0.08076    0.16589    0.00025    1.000
    S2       S        0.08097    0.16617    0.13821    1.000
    Mo3      Mo       0.41426    0.08275    0.06933    1.000
    S4       S        0.33079    0.16583    0.00029    1.000
    S5       S        0.33087    0.16612    0.13824    1.000
    Mo6      Mo       0.66421    0.08270    0.06938    1.000
    S7       S        0.58097    0.16608    0.00038    1.000
    S8       S        0.58092    0.16614    0.13834    1.000
    Mo9      Mo       0.91420    0.08268    0.06932    1.000
    S10      S        0.83080    0.16597    0.00038    1.000
    S11      S        0.83095    0.16606    0.13832    1.000
    Mo12     Mo       0.16412    0.33264    0.06909    1.000
    S13      S        0.08076    0.41610    0.00026    1.000
    S14      S        0.08099    0.41599    0.13823    1.000
    Mo15     Mo       0.41423    0.33260    0.06913    1.000
    S16      S        0.33102    0.41616    0.00017    1.000
    S17      S        0.33060    0.41558    0.13789    1.000
    Mo18     Mo       0.66426    0.33274    0.06934    1.000
    S19      S        0.58109    0.41614    0.00033    1.000
    S20      S        0.58069    0.41589    0.13829    1.000
    Mo21     Mo       0.91422    0.33269    0.06932    1.000
    S22      S        0.83097    0.41612    0.00040    1.000
    S23      S        0.83091    0.41599    0.13832    1.000
    Mo24     Mo       0.16416    0.58272    0.06930    1.000
    S25      S        0.08087    0.66611    0.00037    1.000
    S26      S        0.08096    0.66613    0.13833    1.000
    Mo27     Mo       0.41415    0.58271    0.06932    1.000
    S28      S        0.33082    0.66602    0.00033    1.000
    S29      S        0.33078    0.66616    0.13820    1.000
    Mo30     Mo       0.66413    0.58267    0.06943    1.000
    S31      S        0.58091    0.66610    0.00046    1.000
    S32      S        0.58069    0.66595    0.13844    1.000
    Mo33     Mo       0.91423    0.58274    0.06939    1.000
    S34      S        0.83077    0.66597    0.00044    1.000
    S35      S        0.83086    0.66601    0.13839    1.000
    Mo36     Mo       0.16427    0.83276    0.06934    1.000
    S37      S        0.08083    0.91595    0.00035    1.000
    S38      S        0.08094    0.91607    0.13830    1.000
    Mo39     Mo       0.41424    0.83274    0.06929    1.000
    S40      S        0.33093    0.91610    0.00037    1.000
    S41      S        0.33101    0.91613    0.13830    1.000
    Mo42     Mo       0.66418    0.83268    0.06941    1.000
    S43      S        0.58097    0.91606    0.00039    1.000
    S44      S        0.58083    0.91598    0.13837    1.000
    Mo45     Mo       0.91420    0.83266    0.06937    1.000
    S46      S        0.83084    0.91595    0.00042    1.000
    S47      S        0.83092    0.91606    0.13833    1.000
    H48      H        0.28072    0.48931    0.25760    1.000
    H49      H        0.31919    0.55058    0.32790    1.000
    H50      H        0.40839    0.62801    0.26784    1.000
    C51      C        0.35498    0.54034    0.28684    1.000
    H52      H        0.50134    0.52955    0.32592    1.000
    H53      H        0.46507    0.46987    0.25520    1.000
    H54      H        0.37402    0.39104    0.31441    1.000
    C55      C        0.42806    0.47920    0.29612    1.000
