# CIF file generated by openbabel 3.1.0, see https://openbabel.org
data_I
_chemical_name_common ''
_cell_length_a 13.105
_cell_length_b 13.105
_cell_length_c 23.0122
_cell_angle_alpha 90
_cell_angle_beta 90
_cell_angle_gamma 120
loop_
    _atom_site_label
    _atom_site_type_symbol
    _atom_site_fract_x
    _atom_site_fract_y
    _atom_site_fract_z
    _atom_site_occupancy
    Mo0      Mo       0.16502    0.08130    0.06862    1.000
    S1       S        0.08178    0.16491    0.99981    1.000
    S2       S        0.08188    0.16470    0.13772    1.000
    Mo3      Mo       0.41510    0.08123    0.06857    1.000
    S4       S        0.33184    0.16482    0.99970    1.000
    S5       S        0.33153    0.16421    0.13753    1.000
    Mo6      Mo       0.66523    0.08146    0.06866    1.000
    S7       S        0.58193    0.16487    0.99968    1.000
    S8       S        0.58166    0.16447    0.13752    1.000
    Mo9      Mo       0.91520    0.08153    0.06880    1.000
    S10      S        0.83205    0.16501    0.99983    1.000
    S11      S        0.83178    0.16482    0.13774    1.000
    Mo12     Mo       0.16523    0.33146    0.06886    1.000
    S13      S        0.08195    0.41487    0.99990    1.000
    S14      S        0.08196    0.41489    0.13782    1.000
    Mo15     Mo       0.41513    0.33129    0.06884    1.000
    S16      S        0.33190    0.41474    0.99992    1.000
    S17      S        0.33186    0.41463    0.13789    1.000
    Mo18     Mo       0.66517    0.33140    0.06881    1.000
    S19      S        0.58180    0.41469    0.99988    1.000
    S20      S        0.58186    0.41472    0.13778    1.000
    Mo21     Mo       0.91524    0.33157    0.06886    1.000
    S22      S        0.83186    0.41486    0.99990    1.000
    S23      S        0.83179    0.41475    0.13789    1.000
    Mo24     Mo       0.16527    0.58149    0.06885    1.000
    S25      S        0.08180    0.66470    0.99991    1.000
    S26      S        0.08189    0.66482    0.13780    1.000
    Mo27     Mo       0.41525    0.58136    0.06890    1.000
    S28      S        0.33195    0.66470    0.99991    1.000
    S29      S        0.33200    0.66482    0.13781    1.000
    Mo30     Mo       0.66515    0.58138    0.06883    1.000
    S31      S        0.58184    0.66472    0.99990    1.000
    S32      S        0.58198    0.66481    0.13782    1.000
    Mo33     Mo       0.91513    0.58142    0.06889    1.000
    S34      S        0.83181    0.66471    0.99991    1.000
    S35      S        0.83175    0.66478    0.13782    1.000
    Mo36     Mo       0.16514    0.83138    0.06879    1.000
    S37      S        0.08167    0.91453    0.99977    1.000
    S38      S        0.08179    0.91477    0.13770    1.000
    Mo39     Mo       0.41526    0.83142    0.06879    1.000
    S40      S        0.33172    0.91447    0.99975    1.000
    S41      S        0.33189    0.91475    0.13772    1.000
    Mo42     Mo       0.66523    0.83148    0.06882    1.000
    S43      S        0.58189    0.91470    0.99979    1.000
    S44      S        0.58197    0.91494    0.13773    1.000
    Mo45     Mo       0.91511    0.83142    0.06881    1.000
    S46      S        0.83186    0.91484    0.99985    1.000
    S47      S        0.83191    0.91492    0.13778    1.000
    H48      H        0.64799    0.34715    0.27022    1.000
    H49      H        0.60869    0.27250    0.33759    1.000
    H50      H        0.56068    0.19203    0.27207    1.000
    C51      C        0.57696    0.27309    0.29374    1.000
    H52      H        0.39359    0.20848    0.31846    1.000
    H53      H        0.43319    0.28463    0.25170    1.000
    H54      H        0.48103    0.36377    0.31752    1.000
    C55      C        0.46483    0.28313    0.29548    1.000
