# CIF file generated by openbabel 3.1.0, see https://openbabel.org
data_I
_chemical_name_common ''
_cell_length_a 13.105
_cell_length_b 13.105
_cell_length_c 23.0122
_cell_angle_alpha 90
_cell_angle_beta 90
_cell_angle_gamma 120
loop_
    _atom_site_label
    _atom_site_type_symbol
    _atom_site_fract_x
    _atom_site_fract_y
    _atom_site_fract_z
    _atom_site_occupancy
    Mo0      Mo       0.16598    0.08242    0.06959    1.000
    S1       S        0.08257    0.16570    0.00063    1.000
    S2       S        0.08270    0.16580    0.13858    1.000
    Mo3      Mo       0.41594    0.08242    0.06959    1.000
    S4       S        0.33269    0.16588    0.00063    1.000
    S5       S        0.33255    0.16559    0.13853    1.000
    Mo6      Mo       0.66595    0.08241    0.06965    1.000
    S7       S        0.58263    0.16569    0.00064    1.000
    S8       S        0.58260    0.16578    0.13859    1.000
    Mo9      Mo       0.91597    0.08242    0.06965    1.000
    S10      S        0.83261    0.16571    0.00068    1.000
    S11      S        0.83260    0.16569    0.13864    1.000
    Mo12     Mo       0.16587    0.33240    0.06954    1.000
    S13      S        0.08254    0.41580    0.00068    1.000
    S14      S        0.08261    0.41565    0.13862    1.000
    Mo15     Mo       0.41598    0.33246    0.06969    1.000
    S16      S        0.33271    0.41584    0.00064    1.000
    S17      S        0.33231    0.41576    0.13852    1.000
    Mo18     Mo       0.66602    0.33239    0.06955    1.000
    S19      S        0.58264    0.41584    0.00065    1.000
    S20      S        0.58295    0.41576    0.13853    1.000
    Mo21     Mo       0.91593    0.33236    0.06967    1.000
    S22      S        0.83274    0.41579    0.00068    1.000
    S23      S        0.83255    0.41564    0.13863    1.000
    Mo24     Mo       0.16591    0.58240    0.06971    1.000
    S25      S        0.08259    0.66571    0.00073    1.000
    S26      S        0.08261    0.66573    0.13870    1.000
    Mo27     Mo       0.41598    0.58253    0.06964    1.000
    S28      S        0.33256    0.66579    0.00074    1.000
    S29      S        0.33263    0.66575    0.13868    1.000
    Mo30     Mo       0.66603    0.58252    0.06965    1.000
    S31      S        0.58269    0.66588    0.00066    1.000
    S32      S        0.58281    0.66612    0.13855    1.000
    Mo33     Mo       0.91597    0.58239    0.06971    1.000
    S34      S        0.83272    0.66579    0.00074    1.000
    S35      S        0.83262    0.66575    0.13868    1.000
    Mo36     Mo       0.16593    0.83238    0.06969    1.000
    S37      S        0.08262    0.91568    0.00069    1.000
    S38      S        0.08271    0.91586    0.13863    1.000
    Mo39     Mo       0.41593    0.83244    0.06969    1.000
    S40      S        0.33254    0.91567    0.00069    1.000
    S41      S        0.33262    0.91585    0.13863    1.000
    Mo42     Mo       0.66605    0.83261    0.06959    1.000
    S43      S        0.58255    0.91580    0.00067    1.000
    S44      S        0.58264    0.91580    0.13863    1.000
    Mo45     Mo       0.91600    0.83244    0.06969    1.000
    S46      S        0.83274    0.91580    0.00067    1.000
    S47      S        0.83266    0.91581    0.13863    1.000
    H48      H        0.46403    0.29346    0.26450    1.000
    H49      H        0.39325    0.28649    0.33088    1.000
    H50      H        0.32952    0.29379    0.26454    1.000
    C51      C        0.41311    0.32613    0.28760    1.000
    H52      H        0.43086    0.49362    0.31563    1.000
    H53      H        0.49868    0.50173    0.24825    1.000
    H54      H        0.56571    0.49383    0.31326    1.000
    C55      C        0.48097    0.46154    0.29141    1.000
