# CIF file generated by openbabel 3.1.0, see https://openbabel.org
data_I
_chemical_name_common ''
_cell_length_a 13.105
_cell_length_b 13.105
_cell_length_c 23.0122
_cell_angle_alpha 90
_cell_angle_beta 90
_cell_angle_gamma 120
loop_
    _atom_site_label
    _atom_site_type_symbol
    _atom_site_fract_x
    _atom_site_fract_y
    _atom_site_fract_z
    _atom_site_occupancy
    Mo0      Mo       0.16747    0.08324    0.06931    1.000
    S1       S        0.08409    0.16651    0.00033    1.000
    S2       S        0.08419    0.16663    0.13823    1.000
    Mo3      Mo       0.41746    0.08330    0.06929    1.000
    S4       S        0.33391    0.16625    0.00021    1.000
    S5       S        0.33432    0.16695    0.13818    1.000
    Mo6      Mo       0.66749    0.08334    0.06938    1.000
    S7       S        0.58404    0.16636    0.00028    1.000
    S8       S        0.58413    0.16692    0.13824    1.000
    Mo9      Mo       0.91746    0.08327    0.06931    1.000
    S10      S        0.83408    0.16664    0.00040    1.000
    S11      S        0.83418    0.16669    0.13830    1.000
    Mo12     Mo       0.16743    0.33323    0.06924    1.000
    S13      S        0.08405    0.41660    0.00038    1.000
    S14      S        0.08414    0.41652    0.13827    1.000
    Mo15     Mo       0.41724    0.33321    0.06886    1.000
    S16      S        0.33388    0.41672    0.00013    1.000
    S17      S        0.33422    0.41655    0.13809    1.000
    Mo18     Mo       0.66743    0.33325    0.06899    1.000
    S19      S        0.58407    0.41662    0.99987    1.000
    S20      S        0.58379    0.41653    0.13736    1.000
    Mo21     Mo       0.91742    0.33330    0.06933    1.000
    S22      S        0.83430    0.41671    0.00026    1.000
    S23      S        0.83383    0.41652    0.13822    1.000
    Mo24     Mo       0.16747    0.58325    0.06934    1.000
    S25      S        0.08413    0.66659    0.00041    1.000
    S26      S        0.08405    0.66649    0.13831    1.000
    Mo27     Mo       0.41744    0.58328    0.06921    1.000
    S28      S        0.33412    0.66672    0.00035    1.000
    S29      S        0.33419    0.66656    0.13826    1.000
    Mo30     Mo       0.66744    0.58335    0.06895    1.000
    S31      S        0.58408    0.66685    0.00023    1.000
    S32      S        0.58409    0.66631    0.13821    1.000
    Mo33     Mo       0.91741    0.58323    0.06932    1.000
    S34      S        0.83438    0.66675    0.00026    1.000
    S35      S        0.83381    0.66639    0.13821    1.000
    Mo36     Mo       0.16750    0.83323    0.06938    1.000
    S37      S        0.08416    0.91650    0.00043    1.000
    S38      S        0.08417    0.91661    0.13832    1.000
    Mo39     Mo       0.41755    0.83331    0.06937    1.000
    S40      S        0.33415    0.91655    0.00041    1.000
    S41      S        0.33422    0.91668    0.13830    1.000
    Mo42     Mo       0.66751    0.83324    0.06936    1.000
    S43      S        0.58426    0.91669    0.00047    1.000
    S44      S        0.58426    0.91664    0.13834    1.000
    Mo45     Mo       0.91749    0.83324    0.06934    1.000
    S46      S        0.83414    0.91655    0.00039    1.000
    S47      S        0.83418    0.91659    0.13829    1.000
    H48      H        0.70374    0.49856    0.26188    1.000
    H49      H        0.68316    0.42194    0.32795    1.000
    H50      H        0.62602    0.34291    0.26255    1.000
    C51      C        0.64120    0.42115    0.28678    1.000
    H52      H        0.46346    0.34497    0.32267    1.000
    H53      H        0.48170    0.41846    0.25592    1.000
    H54      H        0.54071    0.50051    0.32026    1.000
    C55      C        0.52514    0.42129    0.29698    1.000
