# CIF file generated by openbabel 3.1.0, see https://openbabel.org
data_I
_chemical_name_common ''
_cell_length_a 13.105
_cell_length_b 13.105
_cell_length_c 23.0122
_cell_angle_alpha 90
_cell_angle_beta 90
_cell_angle_gamma 120
loop_
    _atom_site_label
    _atom_site_type_symbol
    _atom_site_fract_x
    _atom_site_fract_y
    _atom_site_fract_z
    _atom_site_occupancy
    Mo0      Mo       0.16530    0.08107    0.06923    1.000
    S1       S        0.08188    0.16441    0.00035    1.000
    S2       S        0.08205    0.16440    0.13831    1.000
    Mo3      Mo       0.41529    0.08106    0.06923    1.000
    S4       S        0.33206    0.16460    0.00028    1.000
    S5       S        0.33178    0.16403    0.13812    1.000
    Mo6      Mo       0.66524    0.08101    0.06936    1.000
    S7       S        0.58205    0.16440    0.00034    1.000
    S8       S        0.58188    0.16440    0.13830    1.000
    Mo9      Mo       0.91530    0.08101    0.06937    1.000
    S10      S        0.83190    0.16425    0.00042    1.000
    S11      S        0.83190    0.16427    0.13833    1.000
    Mo12     Mo       0.16531    0.33107    0.06932    1.000
    S13      S        0.08189    0.41436    0.00039    1.000
    S14      S        0.08188    0.41430    0.13832    1.000
    Mo15     Mo       0.41531    0.33108    0.06944    1.000
    S16      S        0.33210    0.41449    0.00043    1.000
    S17      S        0.33179    0.41441    0.13835    1.000
    Mo18     Mo       0.66529    0.33106    0.06931    1.000
    S19      S        0.58192    0.41448    0.00043    1.000
    S20      S        0.58218    0.41443    0.13833    1.000
    Mo21     Mo       0.91523    0.33093    0.06936    1.000
    S22      S        0.83200    0.41434    0.00038    1.000
    S23      S        0.83195    0.41430    0.13831    1.000
    Mo24     Mo       0.16522    0.58100    0.06938    1.000
    S25      S        0.08195    0.66435    0.00040    1.000
    S26      S        0.08195    0.66439    0.13834    1.000
    Mo27     Mo       0.41534    0.58109    0.06943    1.000
    S28      S        0.33191    0.66430    0.00045    1.000
    S29      S        0.33189    0.66439    0.13837    1.000
    Mo30     Mo       0.66529    0.58109    0.06942    1.000
    S31      S        0.58197    0.66442    0.00044    1.000
    S32      S        0.58208    0.66461    0.13840    1.000
    Mo33     Mo       0.91532    0.58100    0.06937    1.000
    S34      S        0.83193    0.66431    0.00044    1.000
    S35      S        0.83203    0.66439    0.13835    1.000
    Mo36     Mo       0.16527    0.83103    0.06935    1.000
    S37      S        0.08190    0.91428    0.00034    1.000
    S38      S        0.08199    0.91446    0.13828    1.000
    Mo39     Mo       0.41525    0.83102    0.06936    1.000
    S40      S        0.33189    0.91426    0.00035    1.000
    S41      S        0.33199    0.91446    0.13828    1.000
    Mo42     Mo       0.66530    0.83108    0.06934    1.000
    S43      S        0.58189    0.91436    0.00039    1.000
    S44      S        0.58191    0.91436    0.13831    1.000
    Mo45     Mo       0.91530    0.83103    0.06935    1.000
    S46      S        0.83200    0.91437    0.00039    1.000
    S47      S        0.83197    0.91435    0.13831    1.000
    H48      H        0.43659    0.50604    0.26948    1.000
    H49      H        0.50096    0.50333    0.33647    1.000
    H50      H        0.57091    0.50536    0.27053    1.000
    C51      C        0.48528    0.47009    0.29192    1.000
    H52      H        0.46454    0.29822    0.31393    1.000
    H53      H        0.40332    0.30126    0.24619    1.000
    H54      H        0.33025    0.29901    0.31089    1.000
    C55      C        0.41697    0.33444    0.29073    1.000
