# CIF file generated by openbabel 3.1.0, see https://openbabel.org
data_I
_chemical_name_common ''
_cell_length_a 13.105
_cell_length_b 13.105
_cell_length_c 23.0122
_cell_angle_alpha 90
_cell_angle_beta 90
_cell_angle_gamma 120
loop_
    _atom_site_label
    _atom_site_type_symbol
    _atom_site_fract_x
    _atom_site_fract_y
    _atom_site_fract_z
    _atom_site_occupancy
    Mo0      Mo       0.16611    0.08314    0.06935    1.000
    S1       S        0.08276    0.16639    0.00033    1.000
    S2       S        0.08290    0.16666    0.13829    1.000
    Mo3      Mo       0.41605    0.08308    0.06934    1.000
    S4       S        0.33272    0.16635    0.00033    1.000
    S5       S        0.33285    0.16662    0.13830    1.000
    Mo6      Mo       0.66605    0.08302    0.06932    1.000
    S7       S        0.58270    0.16631    0.00037    1.000
    S8       S        0.58270    0.16627    0.13831    1.000
    Mo9      Mo       0.91614    0.08313    0.06933    1.000
    S10      S        0.83272    0.16637    0.00037    1.000
    S11      S        0.83269    0.16630    0.13832    1.000
    Mo12     Mo       0.16615    0.33316    0.06917    1.000
    S13      S        0.08266    0.41648    0.00034    1.000
    S14      S        0.08280    0.41633    0.13832    1.000
    Mo15     Mo       0.41617    0.33313    0.06917    1.000
    S16      S        0.33289    0.41656    0.00014    1.000
    S17      S        0.33267    0.41618    0.13791    1.000
    Mo18     Mo       0.66610    0.33297    0.06934    1.000
    S19      S        0.58297    0.41645    0.00033    1.000
    S20      S        0.58275    0.41630    0.13828    1.000
    Mo21     Mo       0.91606    0.33300    0.06936    1.000
    S22      S        0.83278    0.41637    0.00042    1.000
    S23      S        0.83272    0.41628    0.13835    1.000
    Mo24     Mo       0.16607    0.58308    0.06936    1.000
    S25      S        0.08265    0.66638    0.00044    1.000
    S26      S        0.08275    0.66638    0.13838    1.000
    Mo27     Mo       0.41615    0.58314    0.06925    1.000
    S28      S        0.33267    0.66642    0.00031    1.000
    S29      S        0.33288    0.66660    0.13823    1.000
    Mo30     Mo       0.66613    0.58309    0.06935    1.000
    S31      S        0.58288    0.66645    0.00030    1.000
    S32      S        0.58291    0.66671    0.13821    1.000
    Mo33     Mo       0.91605    0.58301    0.06942    1.000
    S34      S        0.83285    0.66640    0.00043    1.000
    S35      S        0.83273    0.66641    0.13836    1.000
    Mo36     Mo       0.16599    0.83307    0.06939    1.000
    S37      S        0.08274    0.91643    0.00040    1.000
    S38      S        0.08276    0.91651    0.13836    1.000
    Mo39     Mo       0.41604    0.83310    0.06925    1.000
    S40      S        0.33258    0.91641    0.00037    1.000
    S41      S        0.33270    0.91639    0.13829    1.000
    Mo42     Mo       0.66616    0.83317    0.06923    1.000
    S43      S        0.58274    0.91647    0.00030    1.000
    S44      S        0.58270    0.91634    0.13825    1.000
    Mo45     Mo       0.91613    0.83311    0.06937    1.000
    S46      S        0.83292    0.91649    0.00034    1.000
    S47      S        0.83277    0.91646    0.13827    1.000
    H48      H        0.25412    0.42994    0.26685    1.000
    H49      H        0.28765    0.50620    0.33370    1.000
    H50      H        0.33157    0.58540    0.26768    1.000
    C51      C        0.32131    0.50724    0.29013    1.000
    H52      H        0.50463    0.58266    0.31787    1.000
    H53      H        0.47517    0.51287    0.24949    1.000
    H54      H        0.42767    0.42733    0.31343    1.000
    C55      C        0.43885    0.50751    0.29289    1.000
