# CIF file generated by openbabel 3.1.0, see https://openbabel.org
data_I
_chemical_name_common ''
_cell_length_a 13.105
_cell_length_b 13.105
_cell_length_c 23.0122
_cell_angle_alpha 90
_cell_angle_beta 90
_cell_angle_gamma 120
loop_
    _atom_site_label
    _atom_site_type_symbol
    _atom_site_fract_x
    _atom_site_fract_y
    _atom_site_fract_z
    _atom_site_occupancy
    Mo0      Mo       0.16549    0.08313    0.06783    1.000
    S1       S        0.08219    0.16642    0.99884    1.000
    S2       S        0.08224    0.16660    0.13673    1.000
    Mo3      Mo       0.41546    0.08312    0.06782    1.000
    S4       S        0.33212    0.16641    0.99889    1.000
    S5       S        0.33227    0.16663    0.13682    1.000
    Mo6      Mo       0.66552    0.08322    0.06773    1.000
    S7       S        0.58203    0.16639    0.99878    1.000
    S8       S        0.58221    0.16653    0.13671    1.000
    Mo9      Mo       0.91551    0.08327    0.06778    1.000
    S10      S        0.83226    0.16665    0.99880    1.000
    S11      S        0.83214    0.16655    0.13672    1.000
    Mo12     Mo       0.16559    0.33316    0.06768    1.000
    S13      S        0.08221    0.41653    0.99885    1.000
    S14      S        0.08232    0.41649    0.13671    1.000
    Mo15     Mo       0.41559    0.33321    0.06769    1.000
    S16      S        0.33230    0.41653    0.99869    1.000
    S17      S        0.33220    0.41648    0.13651    1.000
    Mo18     Mo       0.66542    0.33314    0.06768    1.000
    S19      S        0.58218    0.41654    0.99869    1.000
    S20      S        0.58223    0.41650    0.13657    1.000
    Mo21     Mo       0.91551    0.33319    0.06780    1.000
    S22      S        0.83218    0.41651    0.99883    1.000
    S23      S        0.83205    0.41654    0.13670    1.000
    Mo24     Mo       0.16551    0.58319    0.06779    1.000
    S25      S        0.08213    0.66639    0.99878    1.000
    S26      S        0.08209    0.66644    0.13671    1.000
    Mo27     Mo       0.41552    0.58316    0.06773    1.000
    S28      S        0.33216    0.66650    0.99883    1.000
    S29      S        0.33222    0.66648    0.13673    1.000
    Mo30     Mo       0.66553    0.58316    0.06772    1.000
    S31      S        0.58222    0.66661    0.99887    1.000
    S32      S        0.58213    0.66636    0.13680    1.000
    Mo33     Mo       0.91549    0.58321    0.06774    1.000
    S34      S        0.83218    0.66657    0.99877    1.000
    S35      S        0.83214    0.66654    0.13671    1.000
    Mo36     Mo       0.16536    0.83305    0.06773    1.000
    S37      S        0.08212    0.91655    0.99881    1.000
    S38      S        0.08206    0.91636    0.13671    1.000
    Mo39     Mo       0.41546    0.83316    0.06777    1.000
    S40      S        0.33209    0.91648    0.99883    1.000
    S41      S        0.33197    0.91636    0.13671    1.000
    Mo42     Mo       0.66544    0.83320    0.06785    1.000
    S43      S        0.58213    0.91646    0.99883    1.000
    S44      S        0.58211    0.91662    0.13673    1.000
    Mo45     Mo       0.91543    0.83321    0.06775    1.000
    S46      S        0.83203    0.91658    0.99886    1.000
    S47      S        0.83220    0.91661    0.13673    1.000
    H48      H        0.59077    0.49469    0.27420    1.000
    H49      H        0.56296    0.41768    0.34066    1.000
    H50      H        0.51474    0.33911    0.27457    1.000
    C51      C        0.52593    0.41672    0.29798    1.000
    H52      H        0.34409    0.33869    0.32870    1.000
    H53      H        0.36917    0.41086    0.26111    1.000
    H54      H        0.41953    0.49405    0.32567    1.000
    C55      C        0.40799    0.41501    0.30371    1.000
