# CIF file generated by openbabel 3.1.0, see https://openbabel.org
data_I
_chemical_name_common ''
_cell_length_a 13.105
_cell_length_b 13.105
_cell_length_c 23.0122
_cell_angle_alpha 90
_cell_angle_beta 90
_cell_angle_gamma 120
loop_
    _atom_site_label
    _atom_site_type_symbol
    _atom_site_fract_x
    _atom_site_fract_y
    _atom_site_fract_z
    _atom_site_occupancy
    Mo0      Mo       0.16653    0.08274    0.06924    1.000
    S1       S        0.08332    0.16624    0.00033    1.000
    S2       S        0.08330    0.16621    0.13826    1.000
    Mo3      Mo       0.41651    0.08251    0.06916    1.000
    S4       S        0.33313    0.16589    0.00025    1.000
    S5       S        0.33321    0.16569    0.13807    1.000
    Mo6      Mo       0.66674    0.08275    0.06921    1.000
    S7       S        0.58324    0.16590    0.00024    1.000
    S8       S        0.58317    0.16583    0.13819    1.000
    Mo9      Mo       0.91665    0.08281    0.06930    1.000
    S10      S        0.83351    0.16619    0.00027    1.000
    S11      S        0.83340    0.16626    0.13820    1.000
    Mo12     Mo       0.16663    0.33292    0.06926    1.000
    S13      S        0.08342    0.41639    0.00028    1.000
    S14      S        0.08339    0.41635    0.13826    1.000
    Mo15     Mo       0.41648    0.33259    0.06927    1.000
    S16      S        0.33327    0.41619    0.00031    1.000
    S17      S        0.33313    0.41617    0.13818    1.000
    Mo18     Mo       0.66645    0.33252    0.06921    1.000
    S19      S        0.58308    0.41578    0.00028    1.000
    S20      S        0.58321    0.41570    0.13814    1.000
    Mo21     Mo       0.91670    0.33286    0.06923    1.000
    S22      S        0.83311    0.41592    0.00024    1.000
    S23      S        0.83314    0.41599    0.13818    1.000
    Mo24     Mo       0.16659    0.58294    0.06929    1.000
    S25      S        0.08310    0.66610    0.00029    1.000
    S26      S        0.08294    0.66607    0.13818    1.000
    Mo27     Mo       0.41657    0.58278    0.06930    1.000
    S28      S        0.33331    0.66620    0.00035    1.000
    S29      S        0.33330    0.66617    0.13830    1.000
    Mo30     Mo       0.66634    0.58248    0.06927    1.000
    S31      S        0.58317    0.66599    0.00034    1.000
    S32      S        0.58326    0.66610    0.13827    1.000
    Mo33     Mo       0.91634    0.58264    0.06919    1.000
    S34      S        0.83295    0.66600    0.00026    1.000
    S35      S        0.83297    0.66585    0.13821    1.000
    Mo36     Mo       0.16642    0.83272    0.06924    1.000
    S37      S        0.08306    0.91607    0.00029    1.000
    S38      S        0.08319    0.91612    0.13824    1.000
    Mo39     Mo       0.41667    0.83279    0.06928    1.000
    S40      S        0.33311    0.91582    0.00026    1.000
    S41      S        0.33313    0.91599    0.13821    1.000
    Mo42     Mo       0.66663    0.83274    0.06927    1.000
    S43      S        0.58336    0.91606    0.00026    1.000
    S44      S        0.58339    0.91618    0.13821    1.000
    Mo45     Mo       0.91645    0.83268    0.06928    1.000
    S46      S        0.83329    0.91614    0.00034    1.000
    S47      S        0.83327    0.91607    0.13827    1.000
    H48      H        0.49114    0.51609    0.26485    1.000
    H49      H        0.52293    0.48892    0.33583    1.000
    H50      H        0.57500    0.44609    0.27510    1.000
    C51      C        0.50043    0.45257    0.29194    1.000
    H52      H        0.39596    0.26823    0.31886    1.000
    H53      H        0.36409    0.29526    0.24798    1.000
    H54      H        0.31209    0.33833    0.30854    1.000
    C55      C        0.38669    0.33174    0.29186    1.000
