# CIF file generated by openbabel 3.1.0, see https://openbabel.org
data_I
_chemical_name_common ''
_cell_length_a 13.105
_cell_length_b 13.105
_cell_length_c 23.0122
_cell_angle_alpha 90
_cell_angle_beta 90
_cell_angle_gamma 120
loop_
    _atom_site_label
    _atom_site_type_symbol
    _atom_site_fract_x
    _atom_site_fract_y
    _atom_site_fract_z
    _atom_site_occupancy
    H0       H        0.53093    0.40206    0.44270    1.000
    H1       H        0.46838    0.40215    0.51058    1.000
    H2       H        0.39651    0.40221    0.44579    1.000
    C3       C        0.48274    0.43698    0.46635    1.000
    H4       H        0.50116    0.60731    0.48909    1.000
    H5       H        0.56668    0.60746    0.42211    1.000
    H6       H        0.63588    0.60751    0.48788    1.000
    C7       C        0.55053    0.57261    0.46636    1.000
