# CIF file generated by openbabel 3.1.0, see https://openbabel.org
data_I
_chemical_name_common ''
_cell_length_a 19.6668
_cell_length_b 19.6668
_cell_length_c 23.0123
_cell_angle_alpha 90
_cell_angle_beta 90
_cell_angle_gamma 120
loop_
    _atom_site_label
    _atom_site_type_symbol
    _atom_site_fract_x
    _atom_site_fract_y
    _atom_site_fract_z
    _atom_site_occupancy
    Mo0      Mo       0.11126    0.05416    0.07062    1.000
    S1       S        0.05569    0.10967    0.00166    1.000
    S2       S        0.05576    0.10977    0.13954    1.000
    Mo3      Mo       0.27789    0.05416    0.07060    1.000
    S4       S        0.22232    0.10965    0.00162    1.000
    S5       S        0.22242    0.10982    0.13950    1.000
    Mo6      Mo       0.44455    0.05419    0.07060    1.000
    S7       S        0.38896    0.10968    0.00163    1.000
    S8       S        0.38901    0.10981    0.13950    1.000
    Mo9      Mo       0.61124    0.05422    0.07060    1.000
    S10      S        0.55565    0.10975    0.00165    1.000
    S11      S        0.55566    0.10979    0.13952    1.000
    Mo12     Mo       0.77794    0.05422    0.07062    1.000
    S13      S        0.72239    0.10981    0.00168    1.000
    S14      S        0.72234    0.10975    0.13956    1.000
    Mo15     Mo       0.94461    0.05418    0.07063    1.000
    S16      S        0.88908    0.10977    0.00170    1.000
    S17      S        0.88907    0.10976    0.13957    1.000
    Mo18     Mo       0.11128    0.22084    0.07055    1.000
    S19      S        0.05564    0.27635    0.00164    1.000
    S20      S        0.05581    0.27646    0.13952    1.000
    Mo21     Mo       0.27794    0.22088    0.07048    1.000
    S22      S        0.22225    0.27627    0.00149    1.000
    S23      S        0.22250    0.27658    0.13938    1.000
    Mo24     Mo       0.44457    0.22088    0.07049    1.000
    S25      S        0.38898    0.27630    0.00146    1.000
    S26      S        0.38912    0.27662    0.13936    1.000
    Mo27     Mo       0.61122    0.22087    0.07057    1.000
    S28      S        0.55567    0.27631    0.00153    1.000
    S29      S        0.55568    0.27652    0.13942    1.000
    Mo30     Mo       0.77791    0.22086    0.07065    1.000
    S31      S        0.72237    0.27639    0.00167    1.000
    S32      S        0.72229    0.27642    0.13955    1.000
    Mo33     Mo       0.94462    0.22086    0.07064    1.000
    S34      S        0.88902    0.27639    0.00172    1.000
    S35      S        0.88903    0.27639    0.13959    1.000
    Mo36     Mo       0.11122    0.38751    0.07051    1.000
    S37      S        0.05559    0.44309    0.00167    1.000
    S38      S        0.05570    0.44303    0.13956    1.000
    Mo39     Mo       0.27788    0.38752    0.07026    1.000
    S40      S        0.22216    0.44301    0.00139    1.000
    S41      S        0.22246    0.44315    0.13930    1.000
    Mo42     Mo       0.44459    0.38754    0.07021    1.000
    S43      S        0.38888    0.44290    0.00116    1.000
    S44      S        0.38908    0.44322    0.13906    1.000
    Mo45     Mo       0.61125    0.38751    0.07035    1.000
    S46      S        0.55572    0.44298    0.00127    1.000
    S47      S        0.55570    0.44314    0.13916    1.000
    Mo48     Mo       0.77789    0.38750    0.07059    1.000
    S49      S        0.72244    0.44303    0.00151    1.000
    S50      S        0.72226    0.44312    0.13942    1.000
    Mo51     Mo       0.94455    0.38750    0.07065    1.000
    S52      S        0.88904    0.44308    0.00171    1.000
    S53      S        0.88896    0.44302    0.13959    1.000
    Mo54     Mo       0.11125    0.55417    0.07064    1.000
    S55      S        0.05566    0.60972    0.00175    1.000
    S56      S        0.05570    0.60971    0.13963    1.000
    Mo57     Mo       0.27788    0.55418    0.07027    1.000
    S58      S        0.22221    0.60978    0.00156    1.000
    S59      S        0.22252    0.60969    0.13951    1.000
    Mo60     Mo       0.44456    0.55416    0.06992    1.000
    S61      S        0.38890    0.60982    0.00112    1.000
    S62      S        0.38922    0.60977    0.13880    1.000
    Mo63     Mo       0.61126    0.55417    0.07013    1.000
    S64      S        0.55582    0.60985    0.00107    1.000
    S65      S        0.55559    0.60980    0.13880    1.000
    Mo66     Mo       0.77791    0.55416    0.07041    1.000
    S67      S        0.72254    0.60982    0.00137    1.000
    S68      S        0.72217    0.60960    0.13922    1.000
    Mo69     Mo       0.94456    0.55417    0.07068    1.000
    S70      S        0.88913    0.60976    0.00165    1.000
    S71      S        0.88885    0.60968    0.13954    1.000
    Mo72     Mo       0.11121    0.72082    0.07069    1.000
    S73      S        0.05567    0.77639    0.00175    1.000
    S74      S        0.05561    0.77635    0.13962    1.000
    Mo75     Mo       0.27791    0.72082    0.07056    1.000
    S76      S        0.22228    0.77640    0.00171    1.000
    S77      S        0.22239    0.77634    0.13958    1.000
    Mo78     Mo       0.44462    0.72093    0.07018    1.000
    S79      S        0.38893    0.77654    0.00151    1.000
    S80      S        0.38910    0.77626    0.13944    1.000
    Mo81     Mo       0.61124    0.72094    0.07015    1.000
    S82      S        0.55578    0.77666    0.00132    1.000
    S83      S        0.55558    0.77621    0.13930    1.000
    Mo84     Mo       0.77786    0.72084    0.07045    1.000
    S85      S        0.72253    0.77659    0.00146    1.000
    S86      S        0.72209    0.77621    0.13940    1.000
    Mo87     Mo       0.94452    0.72083    0.07064    1.000
    S88      S        0.88909    0.77646    0.00166    1.000
    S89      S        0.88883    0.77631    0.13955    1.000
    Mo90     Mo       0.11121    0.88747    0.07069    1.000
    S91      S        0.05568    0.94302    0.00173    1.000
    S92      S        0.05567    0.94306    0.13961    1.000
    Mo93     Mo       0.27792    0.88749    0.07066    1.000
    S94      S        0.22230    0.94298    0.00172    1.000
    S95      S        0.22238    0.94307    0.13959    1.000
    Mo96     Mo       0.44460    0.88753    0.07057    1.000
    S97      S        0.38900    0.94308    0.00168    1.000
    S98      S        0.38908    0.94306    0.13956    1.000
    Mo99     Mo       0.61126    0.88755    0.07051    1.000
    S100     S        0.55572    0.94319    0.00163    1.000
    S101     S        0.55572    0.94307    0.13951    1.000
    Mo102    Mo       0.77791    0.88753    0.07057    1.000
    S103     S        0.72245    0.94321    0.00165    1.000
    S104     S        0.72231    0.94305    0.13952    1.000
    Mo105    Mo       0.94455    0.88750    0.07065    1.000
    S106     S        0.88907    0.94311    0.00169    1.000
    S107     S        0.88896    0.94305    0.13957    1.000
    H108     H        0.68525    0.63095    0.34280    1.000
    H109     H        0.55138    0.51332    0.32687    1.000
    C110     C        0.57643    0.56031    0.29431    1.000
    H111     H        0.56554    0.66048    0.26890    1.000
    H112     H        0.55705    0.64264    0.34412    1.000
    C113     C        0.54015    0.61347    0.30160    1.000
    H114     H        0.42444    0.52417    0.33021    1.000
    H115     H        0.43296    0.53730    0.25456    1.000
    C116     C        0.44997    0.56915    0.29610    1.000
    H117     H        0.43843    0.66672    0.26487    1.000
    H118     H        0.43164    0.65577    0.34073    1.000
    C119     C        0.41391    0.62287    0.29978    1.000
    H120     H        0.29976    0.61707    0.29515    1.000
    H121     H        0.30415    0.54230    0.25555    1.000
    H122     H        0.29750    0.53710    0.33208    1.000
    C123     C        0.32364    0.57739    0.29541    1.000
    H124     H        0.69104    0.56712    0.29144    1.000
    H125     H        0.69284    0.65355    0.26790    1.000
    C126     C        0.66660    0.60546    0.29945    1.000
    H127     H        0.55948    0.53118    0.25181    1.000
