# CIF file generated by openbabel 3.1.0, see https://openbabel.org
data_I
_chemical_name_common ''
_cell_length_a 19.6668
_cell_length_b 19.6668
_cell_length_c 23.0123
_cell_angle_alpha 90
_cell_angle_beta 90
_cell_angle_gamma 120
loop_
    _atom_site_label
    _atom_site_type_symbol
    _atom_site_fract_x
    _atom_site_fract_y
    _atom_site_fract_z
    _atom_site_occupancy
    Mo0      Mo       0.11102    0.05576    0.07174    1.000
    S1       S        0.05551    0.11131    0.00274    1.000
    S2       S        0.05540    0.11129    0.14063    1.000
    Mo3      Mo       0.27769    0.05576    0.07187    1.000
    S4       S        0.22206    0.11107    0.00278    1.000
    S5       S        0.22222    0.11156    0.14066    1.000
    Mo6      Mo       0.44435    0.05575    0.07189    1.000
    S7       S        0.38867    0.11102    0.00283    1.000
    S8       S        0.38895    0.11164    0.14071    1.000
    Mo9      Mo       0.61100    0.05574    0.07174    1.000
    S10      S        0.55536    0.11121    0.00285    1.000
    S11      S        0.55555    0.11141    0.14073    1.000
    Mo12     Mo       0.77765    0.05571    0.07163    1.000
    S13      S        0.72212    0.11140    0.00284    1.000
    S14      S        0.72209    0.11116    0.14072    1.000
    Mo15     Mo       0.94435    0.05574    0.07159    1.000
    S16      S        0.88882    0.11141    0.00276    1.000
    S17      S        0.88871    0.11112    0.14064    1.000
    Mo18     Mo       0.11100    0.22240    0.07165    1.000
    S19      S        0.05530    0.27789    0.00279    1.000
    S20      S        0.05552    0.27797    0.14068    1.000
    Mo21     Mo       0.27768    0.22243    0.07142    1.000
    S22      S        0.22181    0.27765    0.00245    1.000
    S23      S        0.22241    0.27828    0.14035    1.000
    Mo24     Mo       0.44435    0.22246    0.07142    1.000
    S25      S        0.38848    0.27742    0.00215    1.000
    S26      S        0.38904    0.27853    0.14009    1.000
    Mo27     Mo       0.61099    0.22243    0.07164    1.000
    S28      S        0.55535    0.27754    0.00234    1.000
    S29      S        0.55554    0.27846    0.14027    1.000
    Mo30     Mo       0.77764    0.22240    0.07184    1.000
    S31      S        0.72214    0.27780    0.00276    1.000
    S32      S        0.72204    0.27813    0.14063    1.000
    Mo33     Mo       0.94430    0.22238    0.07180    1.000
    S34      S        0.88874    0.27796    0.00292    1.000
    S35      S        0.88876    0.27793    0.14080    1.000
    Mo36     Mo       0.11099    0.38904    0.07167    1.000
    S37      S        0.05535    0.44458    0.00285    1.000
    S38      S        0.05554    0.44462    0.14072    1.000
    Mo39     Mo       0.27762    0.38905    0.07101    1.000
    S40      S        0.22173    0.44451    0.00239    1.000
    S41      S        0.22246    0.44468    0.14029    1.000
    Mo42     Mo       0.44430    0.38907    0.07050    1.000
    S43      S        0.38837    0.44434    0.00158    1.000
    S44      S        0.38904    0.44486    0.13940    1.000
    Mo45     Mo       0.61106    0.38909    0.07076    1.000
    S46      S        0.55543    0.44431    0.00139    1.000
    S47      S        0.55563    0.44513    0.13895    1.000
    Mo48     Mo       0.77765    0.38908    0.07150    1.000
    S49      S        0.72237    0.44441    0.00204    1.000
    S50      S        0.72189    0.44492    0.13999    1.000
    Mo51     Mo       0.94432    0.38906    0.07184    1.000
    S52      S        0.88894    0.44459    0.00277    1.000
    S53      S        0.88858    0.44463    0.14065    1.000
    Mo54     Mo       0.11101    0.55572    0.07177    1.000
    S55      S        0.05553    0.61134    0.00287    1.000
    S56      S        0.05536    0.61120    0.14075    1.000
    Mo57     Mo       0.27767    0.55570    0.07127    1.000
    S58      S        0.22192    0.61137    0.00266    1.000
    S59      S        0.22232    0.61116    0.14054    1.000
    Mo60     Mo       0.44432    0.55573    0.07030    1.000
    S61      S        0.38837    0.61137    0.00188    1.000
    S62      S        0.38919    0.61117    0.13983    1.000
    Mo63     Mo       0.61113    0.55583    0.07002    1.000
    S64      S        0.55541    0.61139    0.00116    1.000
    S65      S        0.55557    0.61128    0.13878    1.000
    Mo66     Mo       0.77770    0.55575    0.07078    1.000
    S67      S        0.72251    0.61135    0.00140    1.000
    S68      S        0.72190    0.61129    0.13933    1.000
    Mo69     Mo       0.94433    0.55572    0.07167    1.000
    S70      S        0.88929    0.61141    0.00236    1.000
    S71      S        0.88831    0.61120    0.14024    1.000
    Mo72     Mo       0.11101    0.72238    0.07187    1.000
    S73      S        0.05575    0.77808    0.00282    1.000
    S74      S        0.05518    0.77783    0.14069    1.000
    Mo75     Mo       0.27768    0.72238    0.07171    1.000
    S76      S        0.22207    0.77799    0.00291    1.000
    S77      S        0.22218    0.77788    0.14078    1.000
    Mo78     Mo       0.44431    0.72237    0.07096    1.000
    S79      S        0.38855    0.77818    0.00256    1.000
    S80      S        0.38902    0.77770    0.14045    1.000
    Mo81     Mo       0.61108    0.72250    0.07026    1.000
    S82      S        0.55530    0.77830    0.00180    1.000
    S83      S        0.55550    0.77761    0.13964    1.000
    Mo84     Mo       0.77773    0.72243    0.07046    1.000
    S85      S        0.72246    0.77840    0.00150    1.000
    S86      S        0.72210    0.77782    0.13918    1.000
    Mo87     Mo       0.94435    0.72241    0.07142    1.000
    S88      S        0.88939    0.77825    0.00214    1.000
    S89      S        0.88821    0.77769    0.14007    1.000
    Mo90     Mo       0.11101    0.88907    0.07184    1.000
    S91      S        0.05571    0.94473    0.00275    1.000
    S92      S        0.05521    0.94454    0.14063    1.000
    Mo93     Mo       0.27767    0.88906    0.07189    1.000
    S94      S        0.22215    0.94463    0.00296    1.000
    S95      S        0.22210    0.94464    0.14083    1.000
    Mo96     Mo       0.44433    0.88905    0.07172    1.000
    S97      S        0.38873    0.94467    0.00293    1.000
    S98      S        0.38883    0.94457    0.14081    1.000
    Mo99     Mo       0.61100    0.88908    0.07115    1.000
    S100     S        0.55529    0.94483    0.00261    1.000
    S101     S        0.55559    0.94440    0.14051    1.000
    Mo102    Mo       0.77773    0.88917    0.07090    1.000
    S103     S        0.72221    0.94503    0.00229    1.000
    S104     S        0.72199    0.94421    0.14024    1.000
    Mo105    Mo       0.94434    0.88908    0.07140    1.000
    S106     S        0.88915    0.94494    0.00237    1.000
    S107     S        0.88844    0.94434    0.14029    1.000
    H108     H        0.51722    0.38549    0.33404    1.000
    H109     H        0.46140    0.47524    0.33050    1.000
    C110     C        0.49382    0.47187    0.29287    1.000
    H111     H        0.60805    0.54268    0.25324    1.000
    H112     H        0.61098    0.53858    0.32933    1.000
    C113     C        0.57751    0.54352    0.29300    1.000
    H114     H        0.55357    0.62571    0.33874    1.000
    H115     H        0.54109    0.62493    0.26318    1.000
    C116     C        0.57911    0.62254    0.29711    1.000
    H117     H        0.68845    0.68953    0.25040    1.000
    H118     H        0.69948    0.69411    0.32612    1.000
    C119     C        0.66202    0.69456    0.29100    1.000
    H120     H        0.72176    0.82287    0.28539    1.000
    H121     H        0.62568    0.77492    0.25639    1.000
    H122     H        0.63955    0.78152    0.33244    1.000
    C123     C        0.66243    0.77308    0.29140    1.000
    H124     H        0.43181    0.34339    0.29024    1.000
    H125     H        0.52566    0.38821    0.25760    1.000
    C126     C        0.49192    0.39261    0.29376    1.000
    H127     H        0.46250    0.47482    0.25435    1.000
