# CIF file generated by openbabel 3.1.0, see https://openbabel.org
data_I
_chemical_name_common ''
_cell_length_a 19.6668
_cell_length_b 19.6668
_cell_length_c 23.0123
_cell_angle_alpha 90
_cell_angle_beta 90
_cell_angle_gamma 120
loop_
    _atom_site_label
    _atom_site_type_symbol
    _atom_site_fract_x
    _atom_site_fract_y
    _atom_site_fract_z
    _atom_site_occupancy
    Mo0      Mo       0.11055    0.05578    0.07099    1.000
    S1       S        0.05506    0.11138    0.00203    1.000
    S2       S        0.05504    0.11137    0.13994    1.000
    Mo3      Mo       0.27723    0.05581    0.07098    1.000
    S4       S        0.22158    0.11120    0.00198    1.000
    S5       S        0.22174    0.11148    0.13988    1.000
    Mo6      Mo       0.44397    0.05591    0.07098    1.000
    S7       S        0.38827    0.11123    0.00195    1.000
    S8       S        0.38843    0.11156    0.13985    1.000
    Mo9      Mo       0.61069    0.05595    0.07098    1.000
    S10      S        0.55509    0.11141    0.00201    1.000
    S11      S        0.55511    0.11153    0.13992    1.000
    Mo12     Mo       0.77735    0.05593    0.07099    1.000
    S13      S        0.72187    0.11159    0.00208    1.000
    S14      S        0.72178    0.11144    0.13999    1.000
    Mo15     Mo       0.94395    0.05584    0.07096    1.000
    S16      S        0.88851    0.11158    0.00209    1.000
    S17      S        0.88843    0.11135    0.14000    1.000
    Mo18     Mo       0.11060    0.22251    0.07097    1.000
    S19      S        0.05499    0.27810    0.00212    1.000
    S20      S        0.05519    0.27817    0.13999    1.000
    Mo21     Mo       0.27720    0.22249    0.07079    1.000
    S22      S        0.22151    0.27796    0.00186    1.000
    S23      S        0.22185    0.27821    0.13977    1.000
    Mo24     Mo       0.44387    0.22251    0.07073    1.000
    S25      S        0.38818    0.27788    0.00170    1.000
    S26      S        0.38844    0.27827    0.13960    1.000
    Mo27     Mo       0.61060    0.22256    0.07089    1.000
    S28      S        0.55499    0.27790    0.00177    1.000
    S29      S        0.55497    0.27824    0.13967    1.000
    Mo30     Mo       0.77733    0.22261    0.07108    1.000
    S31      S        0.72178    0.27805    0.00201    1.000
    S32      S        0.72164    0.27819    0.13991    1.000
    Mo33     Mo       0.94399    0.22258    0.07112    1.000
    S34      S        0.88846    0.27813    0.00217    1.000
    S35      S        0.88843    0.27817    0.14007    1.000
    Mo36     Mo       0.11061    0.38927    0.07100    1.000
    S37      S        0.05499    0.44480    0.00210    1.000
    S38      S        0.05508    0.44483    0.14000    1.000
    Mo39     Mo       0.27722    0.38922    0.07070    1.000
    S40      S        0.22154    0.44480    0.00190    1.000
    S41      S        0.22189    0.44486    0.13983    1.000
    Mo42     Mo       0.44384    0.38920    0.07044    1.000
    S43      S        0.38817    0.44474    0.00157    1.000
    S44      S        0.38844    0.44478    0.13949    1.000
    Mo45     Mo       0.61049    0.38918    0.07056    1.000
    S46      S        0.55493    0.44463    0.00144    1.000
    S47      S        0.55489    0.44478    0.13934    1.000
    Mo48     Mo       0.77720    0.38921    0.07088    1.000
    S49      S        0.72170    0.44465    0.00174    1.000
    S50      S        0.72148    0.44482    0.13971    1.000
    Mo51     Mo       0.94393    0.38926    0.07107    1.000
    S52      S        0.88839    0.44472    0.00201    1.000
    S53      S        0.88821    0.44479    0.13993    1.000
    Mo54     Mo       0.11056    0.55592    0.07104    1.000
    S55      S        0.05501    0.61146    0.00208    1.000
    S56      S        0.05489    0.61140    0.13997    1.000
    Mo57     Mo       0.27728    0.55594    0.07082    1.000
    S58      S        0.22160    0.61151    0.00203    1.000
    S59      S        0.22182    0.61148    0.13992    1.000
    Mo60     Mo       0.44386    0.55588    0.07047    1.000
    S61      S        0.38822    0.61148    0.00168    1.000
    S62      S        0.38851    0.61155    0.13955    1.000
    Mo63     Mo       0.61050    0.55581    0.07024    1.000
    S64      S        0.55488    0.61142    0.00135    1.000
    S65      S        0.55508    0.61135    0.13903    1.000
    Mo66     Mo       0.77713    0.55582    0.07060    1.000
    S67      S        0.72171    0.61139    0.00141    1.000
    S68      S        0.72145    0.61141    0.13909    1.000
    Mo69     Mo       0.94381    0.55585    0.07094    1.000
    S70      S        0.88839    0.61138    0.00185    1.000
    S71      S        0.88804    0.61132    0.13981    1.000
    Mo72     Mo       0.11052    0.72253    0.07105    1.000
    S73      S        0.05505    0.77807    0.00202    1.000
    S74      S        0.05477    0.77795    0.13993    1.000
    Mo75     Mo       0.27726    0.72260    0.07098    1.000
    S76      S        0.22166    0.77815    0.00211    1.000
    S77      S        0.22168    0.77806    0.14001    1.000
    Mo78     Mo       0.44391    0.72256    0.07068    1.000
    S79      S        0.38830    0.77824    0.00193    1.000
    S80      S        0.38850    0.77806    0.13984    1.000
    Mo81     Mo       0.61051    0.72250    0.07043    1.000
    S82      S        0.55496    0.77822    0.00169    1.000
    S83      S        0.55505    0.77794    0.13963    1.000
    Mo84     Mo       0.77713    0.72247    0.07046    1.000
    S85      S        0.72168    0.77817    0.00158    1.000
    S86      S        0.72150    0.77787    0.13955    1.000
    Mo87     Mo       0.94379    0.72244    0.07084    1.000
    S88      S        0.88845    0.77810    0.00176    1.000
    S89      S        0.88800    0.77785    0.13970    1.000
    Mo90     Mo       0.11051    0.88911    0.07103    1.000
    S91      S        0.05507    0.94469    0.00202    1.000
    S92      S        0.05485    0.94462    0.13992    1.000
    Mo93     Mo       0.27725    0.88920    0.07109    1.000
    S94      S        0.22166    0.94465    0.00211    1.000
    S95      S        0.22165    0.94475    0.14001    1.000
    Mo96     Mo       0.44399    0.88927    0.07095    1.000
    S97      S        0.38832    0.94477    0.00209    1.000
    S98      S        0.38849    0.94482    0.13997    1.000
    Mo99     Mo       0.61062    0.88923    0.07077    1.000
    S100     S        0.55508    0.94493    0.00195    1.000
    S101     S        0.55516    0.94475    0.13985    1.000
    Mo102    Mo       0.77722    0.88916    0.07069    1.000
    S103     S        0.72181    0.94498    0.00187    1.000
    S104     S        0.72168    0.94461    0.13975    1.000
    Mo105    Mo       0.94383    0.88910    0.07084    1.000
    S106     S        0.88847    0.94483    0.00187    1.000
    S107     S        0.88820    0.94456    0.13977    1.000
    H108     H        0.77302    0.62946    0.33962    1.000
    H109     H        0.63965    0.51063    0.32956    1.000
    C110     C        0.66303    0.55349    0.29403    1.000
    H111     H        0.64679    0.64706    0.25970    1.000
    H112     H        0.64541    0.64232    0.33594    1.000
    C113     C        0.62545    0.60598    0.29656    1.000
    H114     H        0.51377    0.52021    0.33368    1.000
    H115     H        0.51495    0.52071    0.25739    1.000
    C116     C        0.53497    0.55922    0.29572    1.000
    H117     H        0.51750    0.64946    0.25668    1.000
    H118     H        0.51814    0.65097    0.33291    1.000
    C119     C        0.49717    0.61156    0.29524    1.000
    H120     H        0.38185    0.60306    0.29266    1.000
    H121     H        0.38419    0.52344    0.25910    1.000
    H122     H        0.38477    0.52999    0.33567    1.000
    C123     C        0.40677    0.56440    0.29574    1.000
    H124     H        0.77794    0.56112    0.29232    1.000
    H125     H        0.77847    0.64474    0.26371    1.000
    C126     C        0.75334    0.59982    0.29765    1.000
    H127     H        0.64483    0.51924    0.25365    1.000
