# CIF file generated by openbabel 3.1.0, see https://openbabel.org
data_I
_chemical_name_common ''
_cell_length_a 19.6668
_cell_length_b 19.6668
_cell_length_c 23.0123
_cell_angle_alpha 90
_cell_angle_beta 90
_cell_angle_gamma 120
loop_
    _atom_site_label
    _atom_site_type_symbol
    _atom_site_fract_x
    _atom_site_fract_y
    _atom_site_fract_z
    _atom_site_occupancy
    Mo0      Mo       0.11162    0.05546    0.07045    1.000
    S1       S        0.05609    0.11101    0.00148    1.000
    S2       S        0.05610    0.11106    0.13938    1.000
    Mo3      Mo       0.27826    0.05544    0.07033    1.000
    S4       S        0.22262    0.11091    0.00139    1.000
    S5       S        0.22286    0.11112    0.13931    1.000
    Mo6      Mo       0.44495    0.05544    0.07020    1.000
    S7       S        0.38926    0.11089    0.00124    1.000
    S8       S        0.38948    0.11111    0.13914    1.000
    Mo9      Mo       0.61164    0.05543    0.07026    1.000
    S10      S        0.55611    0.11098    0.00128    1.000
    S11      S        0.55604    0.11100    0.13916    1.000
    Mo12     Mo       0.77830    0.05546    0.07035    1.000
    S13      S        0.72286    0.11112    0.00141    1.000
    S14      S        0.72267    0.11094    0.13929    1.000
    Mo15     Mo       0.94498    0.05547    0.07042    1.000
    S16      S        0.88948    0.11109    0.00149    1.000
    S17      S        0.88936    0.11098    0.13937    1.000
    Mo18     Mo       0.11170    0.22216    0.07040    1.000
    S19      S        0.05605    0.27766    0.00147    1.000
    S20      S        0.05620    0.27775    0.13936    1.000
    Mo21     Mo       0.27828    0.22212    0.07021    1.000
    S22      S        0.22265    0.27759    0.00130    1.000
    S23      S        0.22295    0.27782    0.13933    1.000
    Mo24     Mo       0.44495    0.22209    0.07002    1.000
    S25      S        0.38924    0.27755    0.00105    1.000
    S26      S        0.38955    0.27768    0.13883    1.000
    Mo27     Mo       0.61162    0.22212    0.07022    1.000
    S28      S        0.55608    0.27759    0.00113    1.000
    S29      S        0.55600    0.27773    0.13905    1.000
    Mo30     Mo       0.77832    0.22214    0.07042    1.000
    S31      S        0.72285    0.27769    0.00140    1.000
    S32      S        0.72264    0.27767    0.13928    1.000
    Mo33     Mo       0.94500    0.22215    0.07048    1.000
    S34      S        0.88947    0.27771    0.00155    1.000
    S35      S        0.88939    0.27769    0.13942    1.000
    Mo36     Mo       0.11169    0.38882    0.07037    1.000
    S37      S        0.05601    0.44434    0.00149    1.000
    S38      S        0.05614    0.44436    0.13937    1.000
    Mo39     Mo       0.27832    0.38878    0.07012    1.000
    S40      S        0.22265    0.44429    0.00125    1.000
    S41      S        0.22299    0.44447    0.13922    1.000
    Mo42     Mo       0.44498    0.38877    0.06988    1.000
    S43      S        0.38928    0.44424    0.00093    1.000
    S44      S        0.38961    0.44445    0.13868    1.000
    Mo45     Mo       0.61158    0.38878    0.07003    1.000
    S46      S        0.55605    0.44431    0.00096    1.000
    S47      S        0.55599    0.44438    0.13897    1.000
    Mo48     Mo       0.77828    0.38879    0.07032    1.000
    S49      S        0.72283    0.44429    0.00119    1.000
    S50      S        0.72256    0.44432    0.13910    1.000
    Mo51     Mo       0.94497    0.38880    0.07048    1.000
    S52      S        0.88949    0.44436    0.00149    1.000
    S53      S        0.88932    0.44433    0.13937    1.000
    Mo54     Mo       0.11163    0.55546    0.07040    1.000
    S55      S        0.05601    0.61099    0.00152    1.000
    S56      S        0.05604    0.61099    0.13939    1.000
    Mo57     Mo       0.27833    0.55546    0.07011    1.000
    S58      S        0.22261    0.61098    0.00129    1.000
    S59      S        0.22291    0.61104    0.13920    1.000
    Mo60     Mo       0.44495    0.55545    0.06981    1.000
    S61      S        0.38932    0.61096    0.00098    1.000
    S62      S        0.38952    0.61104    0.13890    1.000
    Mo63     Mo       0.61157    0.55541    0.06988    1.000
    S64      S        0.55606    0.61103    0.00086    1.000
    S65      S        0.55602    0.61094    0.13866    1.000
    Mo66     Mo       0.77822    0.55542    0.07016    1.000
    S67      S        0.72279    0.61101    0.00107    1.000
    S68      S        0.72249    0.61093    0.13900    1.000
    Mo69     Mo       0.94492    0.55544    0.07044    1.000
    S70      S        0.88950    0.61102    0.00139    1.000
    S71      S        0.88919    0.61091    0.13928    1.000
    Mo72     Mo       0.11159    0.72210    0.07045    1.000
    S73      S        0.05606    0.77767    0.00153    1.000
    S74      S        0.05598    0.77762    0.13940    1.000
    Mo75     Mo       0.27831    0.72211    0.07023    1.000
    S76      S        0.22259    0.77765    0.00140    1.000
    S77      S        0.22281    0.77765    0.13929    1.000
    Mo78     Mo       0.44499    0.72211    0.06997    1.000
    S79      S        0.38933    0.77766    0.00115    1.000
    S80      S        0.38953    0.77763    0.13909    1.000
    Mo81     Mo       0.61160    0.72212    0.06988    1.000
    S82      S        0.55606    0.77775    0.00097    1.000
    S83      S        0.55614    0.77767    0.13882    1.000
    Mo84     Mo       0.77821    0.72208    0.07011    1.000
    S85      S        0.72282    0.77777    0.00111    1.000
    S86      S        0.72250    0.77752    0.13907    1.000
    Mo87     Mo       0.94490    0.72208    0.07039    1.000
    S88      S        0.88953    0.77774    0.00135    1.000
    S89      S        0.88919    0.77756    0.13923    1.000
    Mo90     Mo       0.11158    0.88877    0.07048    1.000
    S91      S        0.05608    0.94434    0.00153    1.000
    S92      S        0.05599    0.94433    0.13941    1.000
    Mo93     Mo       0.27826    0.88876    0.07034    1.000
    S94      S        0.22259    0.94425    0.00146    1.000
    S95      S        0.22279    0.94437    0.13933    1.000
    Mo96     Mo       0.44497    0.88875    0.07015    1.000
    S97      S        0.38929    0.94429    0.00129    1.000
    S98      S        0.38948    0.94434    0.13916    1.000
    Mo99     Mo       0.61162    0.88878    0.07005    1.000
    S100     S        0.55610    0.94439    0.00121    1.000
    S101     S        0.55605    0.94421    0.13913    1.000
    Mo102    Mo       0.77825    0.88877    0.07021    1.000
    S103     S        0.72282    0.94446    0.00126    1.000
    S104     S        0.72258    0.94419    0.13917    1.000
    Mo105    Mo       0.94493    0.88878    0.07038    1.000
    S106     S        0.88951    0.94443    0.00140    1.000
    S107     S        0.88927    0.94427    0.13928    1.000
    H108     H        0.49562    0.72094    0.33812    1.000
    H109     H        0.55724    0.63559    0.34102    1.000
    C110     C        0.52705    0.63781    0.30161    1.000
    H111     H        0.41362    0.56823    0.26056    1.000
    H112     H        0.40996    0.56693    0.33680    1.000
    C113     C        0.44407    0.56512    0.29964    1.000
    H114     H        0.47442    0.48321    0.33837    1.000
    H115     H        0.47651    0.48431    0.26204    1.000
    C116     C        0.44334    0.48646    0.29978    1.000
    H117     H        0.32845    0.41858    0.26047    1.000
    H118     H        0.32725    0.41521    0.33667    1.000
    C119     C        0.35999    0.41431    0.29839    1.000
    H120     H        0.30060    0.28594    0.29256    1.000
    H121     H        0.39385    0.33459    0.25897    1.000
    H122     H        0.38684    0.32813    0.33547    1.000
    C123     C        0.36012    0.33614    0.29627    1.000
    H124     H        0.58546    0.76634    0.29952    1.000
    H125     H        0.49545    0.71891    0.26139    1.000
    C126     C        0.52602    0.71559    0.30011    1.000
    H127     H        0.56141    0.63565    0.26482    1.000
