# CIF file generated by openbabel 3.1.0, see https://openbabel.org
data_I
_chemical_name_common ''
_cell_length_a 19.6668
_cell_length_b 19.6668
_cell_length_c 23.0123
_cell_angle_alpha 90
_cell_angle_beta 90
_cell_angle_gamma 120
loop_
    _atom_site_label
    _atom_site_type_symbol
    _atom_site_fract_x
    _atom_site_fract_y
    _atom_site_fract_z
    _atom_site_occupancy
    H0       H        0.34665    0.55741    0.46089    1.000
    H1       H        0.35462    0.43249    0.45789    1.000
    C2       C        0.37160    0.46942    0.49688    1.000
    H3       H        0.47891    0.55949    0.53682    1.000
    H4       H        0.48054    0.56116    0.46052    1.000
    C5       C        0.46166    0.52167    0.49822    1.000
    H6       H        0.48657    0.43570    0.46027    1.000
    H7       H        0.48813    0.43693    0.53658    1.000
    C8       C        0.50535    0.47497    0.49809    1.000
    H9       H        0.61416    0.56773    0.53402    1.000
    H10      H        0.61217    0.56443    0.45781    1.000
    C11      C        0.59535    0.52754    0.49682    1.000
    H12      H        0.70223    0.51927    0.49498    1.000
    H13      H        0.62603    0.44625    0.53771    1.000
    H14      H        0.62059    0.43962    0.46118    1.000
    C15      C        0.63871    0.48059    0.49773    1.000
    H16      H        0.26503    0.47831    0.49520    1.000
    H17      H        0.34172    0.55153    0.53748    1.000
    C18      C        0.32861    0.51681    0.49767    1.000
    H19      H        0.35252    0.42924    0.53410    1.000
