# CIF file generated by openbabel 3.1.0, see https://openbabel.org
data_I
_chemical_name_common ''
_cell_length_a 19.6668
_cell_length_b 19.6668
_cell_length_c 23.0123
_cell_angle_alpha 90
_cell_angle_beta 90
_cell_angle_gamma 120
loop_
    _atom_site_label
    _atom_site_type_symbol
    _atom_site_fract_x
    _atom_site_fract_y
    _atom_site_fract_z
    _atom_site_occupancy
    Mo0      Mo       0.11267    0.05598    0.07140    1.000
    S1       S        0.05709    0.11160    0.00252    1.000
    S2       S        0.05717    0.11149    0.14044    1.000
    Mo3      Mo       0.27933    0.05601    0.07148    1.000
    S4       S        0.22370    0.11139    0.00243    1.000
    S5       S        0.22384    0.11177    0.14034    1.000
    Mo6      Mo       0.44597    0.05589    0.07146    1.000
    S7       S        0.39022    0.11101    0.00229    1.000
    S8       S        0.39064    0.11187    0.14021    1.000
    Mo9      Mo       0.61268    0.05598    0.07150    1.000
    S10      S        0.55702    0.11125    0.00245    1.000
    S11      S        0.55714    0.11165    0.14035    1.000
    Mo12     Mo       0.77934    0.05605    0.07149    1.000
    S13      S        0.72384    0.11165    0.00261    1.000
    S14      S        0.72373    0.11149    0.14053    1.000
    Mo15     Mo       0.94608    0.05607    0.07146    1.000
    S16      S        0.89048    0.11169    0.00263    1.000
    S17      S        0.89040    0.11145    0.14051    1.000
    Mo18     Mo       0.11264    0.22263    0.07149    1.000
    S19      S        0.05700    0.27824    0.00269    1.000
    S20      S        0.05712    0.27813    0.14058    1.000
    Mo21     Mo       0.27935    0.22265    0.07116    1.000
    S22      S        0.22341    0.27791    0.00228    1.000
    S23      S        0.22402    0.27842    0.14022    1.000
    Mo24     Mo       0.44612    0.22252    0.07076    1.000
    S25      S        0.39016    0.27771    0.00177    1.000
    S26      S        0.39100    0.27840    0.13950    1.000
    Mo27     Mo       0.61273    0.22256    0.07117    1.000
    S28      S        0.55726    0.27779    0.00180    1.000
    S29      S        0.55721    0.27844    0.13974    1.000
    Mo30     Mo       0.77937    0.22264    0.07159    1.000
    S31      S        0.72399    0.27801    0.00239    1.000
    S32      S        0.72367    0.27828    0.14030    1.000
    Mo33     Mo       0.94598    0.22266    0.07166    1.000
    S34      S        0.89054    0.27828    0.00274    1.000
    S35      S        0.89039    0.27818    0.14065    1.000
    Mo36     Mo       0.11263    0.38930    0.07166    1.000
    S37      S        0.05708    0.44493    0.00283    1.000
    S38      S        0.05713    0.44486    0.14072    1.000
    Mo39     Mo       0.27930    0.38925    0.07094    1.000
    S40      S        0.22343    0.44491    0.00246    1.000
    S41      S        0.22405    0.44472    0.14038    1.000
    Mo42     Mo       0.44616    0.38926    0.07030    1.000
    S43      S        0.39012    0.44464    0.00149    1.000
    S44      S        0.39094    0.44505    0.13915    1.000
    Mo45     Mo       0.61286    0.38924    0.07043    1.000
    S46      S        0.55732    0.44474    0.00132    1.000
    S47      S        0.55742    0.44495    0.13903    1.000
    Mo48     Mo       0.77942    0.38928    0.07119    1.000
    S49      S        0.72424    0.44472    0.00177    1.000
    S50      S        0.72363    0.44498    0.13971    1.000
    Mo51     Mo       0.94602    0.38934    0.07172    1.000
    S52      S        0.89076    0.44486    0.00252    1.000
    S53      S        0.89024    0.44492    0.14042    1.000
    Mo54     Mo       0.11269    0.55601    0.07179    1.000
    S55      S        0.05738    0.61166    0.00274    1.000
    S56      S        0.05694    0.61149    0.14065    1.000
    Mo57     Mo       0.27934    0.55594    0.07149    1.000
    S58      S        0.22364    0.61154    0.00275    1.000
    S59      S        0.22396    0.61155    0.14062    1.000
    Mo60     Mo       0.44611    0.55602    0.07032    1.000
    S61      S        0.39007    0.61174    0.00217    1.000
    S62      S        0.39088    0.61122    0.14011    1.000
    Mo63     Mo       0.61291    0.55608    0.07016    1.000
    S64      S        0.55728    0.61179    0.00125    1.000
    S65      S        0.55736    0.61165    0.13889    1.000
    Mo66     Mo       0.77950    0.55599    0.07063    1.000
    S67      S        0.72423    0.61173    0.00146    1.000
    S68      S        0.72389    0.61163    0.13925    1.000
    Mo69     Mo       0.94607    0.55601    0.07143    1.000
    S70      S        0.89100    0.61172    0.00215    1.000
    S71      S        0.89009    0.61143    0.14007    1.000
    Mo72     Mo       0.11269    0.72267    0.07176    1.000
    S73      S        0.05739    0.77826    0.00264    1.000
    S74      S        0.05689    0.77820    0.14054    1.000
    Mo75     Mo       0.27934    0.72266    0.07167    1.000
    S76      S        0.22374    0.77826    0.00281    1.000
    S77      S        0.22381    0.77820    0.14071    1.000
    Mo78     Mo       0.44602    0.72262    0.07134    1.000
    S79      S        0.39030    0.77822    0.00260    1.000
    S80      S        0.39060    0.77816    0.14048    1.000
    Mo81     Mo       0.61290    0.72292    0.07035    1.000
    S82      S        0.55684    0.77854    0.00208    1.000
    S83      S        0.55746    0.77800    0.14002    1.000
    Mo84     Mo       0.77950    0.72284    0.07051    1.000
    S85      S        0.72424    0.77882    0.00150    1.000
    S86      S        0.72397    0.77846    0.13925    1.000
    Mo87     Mo       0.94605    0.72268    0.07129    1.000
    S88      S        0.89096    0.77846    0.00207    1.000
    S89      S        0.89005    0.77806    0.14002    1.000
    Mo90     Mo       0.11270    0.88933    0.07159    1.000
    S91      S        0.05731    0.94486    0.00244    1.000
    S92      S        0.05698    0.94486    0.14034    1.000
    Mo93     Mo       0.27932    0.88933    0.07175    1.000
    S94      S        0.22380    0.94479    0.00271    1.000
    S95      S        0.22378    0.94504    0.14061    1.000
    Mo96     Mo       0.44599    0.88930    0.07155    1.000
    S97      S        0.39024    0.94468    0.00266    1.000
    S98      S        0.39056    0.94494    0.14057    1.000
    Mo99     Mo       0.61268    0.88938    0.07128    1.000
    S100     S        0.55703    0.94498    0.00251    1.000
    S101     S        0.55718    0.94481    0.14041    1.000
    Mo102    Mo       0.77955    0.88964    0.07079    1.000
    S103     S        0.72374    0.94529    0.00225    1.000
    S104     S        0.72385    0.94471    0.14017    1.000
    Mo105    Mo       0.94607    0.88937    0.07122    1.000
    S106     S        0.89094    0.94534    0.00221    1.000
    S107     S        0.89030    0.94473    0.14015    1.000
    H108     H        0.66992    0.70896    0.33016    1.000
    H109     H        0.64792    0.57132    0.32426    1.000
    C110     C        0.62582    0.59369    0.28979    1.000
    H111     H        0.51603    0.58626    0.26530    1.000
    H112     H        0.52739    0.58151    0.34062    1.000
    C113     C        0.53717    0.56128    0.29864    1.000
    H114     H        0.50770    0.44542    0.32954    1.000
    H115     H        0.50057    0.45166    0.25398    1.000
    C116     C        0.48834    0.47105    0.29546    1.000
    H117     H        0.38100    0.46638    0.26784    1.000
    H118     H        0.38579    0.45416    0.34301    1.000
    C119     C        0.39914    0.43810    0.30064    1.000
    H120     H        0.28809    0.32634    0.29479    1.000
    H121     H        0.36389    0.33110    0.25072    1.000
    H122     H        0.36582    0.31838    0.32645    1.000
    C123     C        0.35127    0.34833    0.29279    1.000
    H124     H        0.73607    0.70528    0.27989    1.000
    H125     H        0.65237    0.70764    0.25483    1.000
    C126     C        0.67394    0.68405    0.28867    1.000
    H127     H        0.63481    0.57059    0.24889    1.000
