# CIF file generated by openbabel 3.1.0, see https://openbabel.org
data_I
_chemical_name_common ''
_cell_length_a 19.6668
_cell_length_b 19.6668
_cell_length_c 23.0123
_cell_angle_alpha 90
_cell_angle_beta 90
_cell_angle_gamma 120
loop_
    _atom_site_label
    _atom_site_type_symbol
    _atom_site_fract_x
    _atom_site_fract_y
    _atom_site_fract_z
    _atom_site_occupancy
    Mo0      Mo       0.11021    0.05426    0.07159    1.000
    S1       S        0.05456    0.10977    0.00273    1.000
    S2       S        0.05475    0.10984    0.14061    1.000
    Mo3      Mo       0.27686    0.05424    0.07171    1.000
    S4       S        0.22121    0.10948    0.00255    1.000
    S5       S        0.22145    0.11013    0.14043    1.000
    Mo6      Mo       0.44350    0.05423    0.07168    1.000
    S7       S        0.38776    0.10943    0.00261    1.000
    S8       S        0.38815    0.11020    0.14049    1.000
    Mo9      Mo       0.61018    0.05422    0.07165    1.000
    S10      S        0.55448    0.10951    0.00262    1.000
    S11      S        0.55469    0.10998    0.14050    1.000
    Mo12     Mo       0.77689    0.05430    0.07167    1.000
    S13      S        0.72134    0.10986    0.00278    1.000
    S14      S        0.72123    0.10974    0.14067    1.000
    Mo15     Mo       0.94355    0.05425    0.07171    1.000
    S16      S        0.88803    0.10987    0.00279    1.000
    S17      S        0.88800    0.10982    0.14067    1.000
    Mo18     Mo       0.11019    0.22089    0.07157    1.000
    S19      S        0.05451    0.27638    0.00269    1.000
    S20      S        0.05481    0.27658    0.14056    1.000
    Mo21     Mo       0.27687    0.22091    0.07115    1.000
    S22      S        0.22078    0.27593    0.00217    1.000
    S23      S        0.22174    0.27687    0.14011    1.000
    Mo24     Mo       0.44354    0.22091    0.07110    1.000
    S25      S        0.38768    0.27594    0.00188    1.000
    S26      S        0.38826    0.27697    0.13981    1.000
    Mo27     Mo       0.61019    0.22083    0.07131    1.000
    S28      S        0.55451    0.27587    0.00196    1.000
    S29      S        0.55478    0.27689    0.13988    1.000
    Mo30     Mo       0.77687    0.22088    0.07171    1.000
    S31      S        0.72143    0.27617    0.00249    1.000
    S32      S        0.72120    0.27663    0.14038    1.000
    Mo33     Mo       0.94356    0.22092    0.07172    1.000
    S34      S        0.88798    0.27640    0.00280    1.000
    S35      S        0.88799    0.27647    0.14068    1.000
    Mo36     Mo       0.11014    0.38759    0.07149    1.000
    S37      S        0.05451    0.44313    0.00270    1.000
    S38      S        0.05472    0.44314    0.14060    1.000
    Mo39     Mo       0.27661    0.38746    0.07061    1.000
    S40      S        0.22079    0.44314    0.00212    1.000
    S41      S        0.22161    0.44313    0.14004    1.000
    Mo42     Mo       0.44341    0.38750    0.07026    1.000
    S43      S        0.38737    0.44270    0.00120    1.000
    S44      S        0.38794    0.44333    0.13889    1.000
    Mo45     Mo       0.61025    0.38743    0.07038    1.000
    S46      S        0.55450    0.44262    0.00112    1.000
    S47      S        0.55475    0.44323    0.13886    1.000
    Mo48     Mo       0.77692    0.38750    0.07118    1.000
    S49      S        0.72165    0.44275    0.00165    1.000
    S50      S        0.72110    0.44326    0.13959    1.000
    Mo51     Mo       0.94354    0.38755    0.07168    1.000
    S52      S        0.88827    0.44305    0.00250    1.000
    S53      S        0.88783    0.44319    0.14037    1.000
    Mo54     Mo       0.11024    0.55426    0.07164    1.000
    S55      S        0.05496    0.60997    0.00265    1.000
    S56      S        0.05456    0.60974    0.14055    1.000
    Mo57     Mo       0.27684    0.55425    0.07112    1.000
    S58      S        0.22111    0.60992    0.00252    1.000
    S59      S        0.22155    0.60972    0.14041    1.000
    Mo60     Mo       0.44334    0.55413    0.06992    1.000
    S61      S        0.38757    0.61014    0.00178    1.000
    S62      S        0.38833    0.60948    0.13973    1.000
    Mo63     Mo       0.61016    0.55404    0.06971    1.000
    S64      S        0.55449    0.60974    0.00081    1.000
    S65      S        0.55456    0.60949    0.13845    1.000
    Mo66     Mo       0.77698    0.55407    0.07038    1.000
    S67      S        0.72175    0.60984    0.00115    1.000
    S68      S        0.72095    0.60930    0.13880    1.000
    Mo69     Mo       0.94366    0.55425    0.07136    1.000
    S70      S        0.88868    0.61004    0.00208    1.000
    S71      S        0.88750    0.60951    0.13998    1.000
    Mo72     Mo       0.11023    0.72095    0.07172    1.000
    S73      S        0.05488    0.77662    0.00273    1.000
    S74      S        0.05435    0.77632    0.14059    1.000
    Mo75     Mo       0.27688    0.72092    0.07157    1.000
    S76      S        0.22135    0.77666    0.00281    1.000
    S77      S        0.22134    0.77633    0.14069    1.000
    Mo78     Mo       0.44354    0.72092    0.07110    1.000
    S79      S        0.38785    0.77667    0.00250    1.000
    S80      S        0.38815    0.77630    0.14038    1.000
    Mo81     Mo       0.61008    0.72081    0.07003    1.000
    S82      S        0.55445    0.77696    0.00192    1.000
    S83      S        0.55486    0.77594    0.13987    1.000
    Mo84     Mo       0.77680    0.72079    0.07041    1.000
    S85      S        0.72163    0.77690    0.00141    1.000
    S86      S        0.72074    0.77587    0.13912    1.000
    Mo87     Mo       0.94349    0.72089    0.07136    1.000
    S88      S        0.88850    0.77681    0.00222    1.000
    S89      S        0.88723    0.77601    0.14017    1.000
    Mo90     Mo       0.11020    0.88757    0.07177    1.000
    S91      S        0.05476    0.94313    0.00271    1.000
    S92      S        0.05452    0.94314    0.14057    1.000
    Mo93     Mo       0.27690    0.88758    0.07188    1.000
    S94      S        0.22134    0.94305    0.00292    1.000
    S95      S        0.22130    0.94319    0.14079    1.000
    Mo96     Mo       0.44357    0.88759    0.07160    1.000
    S97      S        0.38786    0.94311    0.00282    1.000
    S98      S        0.38815    0.94318    0.14070    1.000
    Mo99     Mo       0.61027    0.88758    0.07137    1.000
    S100     S        0.55466    0.94327    0.00264    1.000
    S101     S        0.55472    0.94297    0.14051    1.000
    Mo102    Mo       0.77688    0.88761    0.07096    1.000
    S103     S        0.72140    0.94356    0.00242    1.000
    S104     S        0.72138    0.94284    0.14033    1.000
    Mo105    Mo       0.94349    0.88754    0.07151    1.000
    S106     S        0.88839    0.94348    0.00249    1.000
    S107     S        0.88758    0.94278    0.14041    1.000
    H108     H        0.73882    0.78208    0.34329    1.000
    H109     H        0.72165    0.64700    0.33170    1.000
    C110     C        0.70469    0.67287    0.29629    1.000
    H111     H        0.59799    0.66321    0.26120    1.000
    H112     H        0.59729    0.65437    0.33719    1.000
    C113     C        0.61483    0.63745    0.29686    1.000
    H114     H        0.58531    0.52183    0.32774    1.000
    H115     H        0.58841    0.53014    0.25176    1.000
    C116     C        0.56935    0.54719    0.29132    1.000
    H117     H        0.46318    0.53387    0.25209    1.000
    H118     H        0.46030    0.52967    0.32825    1.000
    C119     C        0.47935    0.51072    0.28978    1.000
    H120     H        0.37176    0.39603    0.28363    1.000
    H121     H        0.45398    0.39964    0.24956    1.000
    H122     H        0.44660    0.39557    0.32602    1.000
    C123     C        0.43523    0.42031    0.28713    1.000
    H124     H        0.81386    0.78617    0.29844    1.000
    H125     H        0.73387    0.79009    0.26711    1.000
    C126     C        0.75053    0.76304    0.30168    1.000
    H127     H        0.72166    0.65568    0.25590    1.000
