# CIF file generated by openbabel 3.1.0, see https://openbabel.org
data_I
_chemical_name_common ''
_cell_length_a 13.105
_cell_length_b 13.105
_cell_length_c 23.0122
_cell_angle_alpha 90
_cell_angle_beta 90
_cell_angle_gamma 120
loop_
    _atom_site_label
    _atom_site_type_symbol
    _atom_site_fract_x
    _atom_site_fract_y
    _atom_site_fract_z
    _atom_site_occupancy
    Mo0      Mo       0.16603    0.08406    0.06786    1.000
    S1       S        0.08240    0.16699    0.99878    1.000
    S2       S        0.08283    0.16778    0.13674    1.000
    Mo3      Mo       0.41576    0.08405    0.06790    1.000
    S4       S        0.33243    0.16711    0.99880    1.000
    S5       S        0.33263    0.16767    0.13688    1.000
    Mo6      Mo       0.66587    0.08410    0.06784    1.000
    S7       S        0.58245    0.16742    0.99895    1.000
    S8       S        0.58247    0.16745    0.13682    1.000
    Mo9      Mo       0.91587    0.08403    0.06783    1.000
    S10      S        0.83252    0.16742    0.99890    1.000
    S11      S        0.83255    0.16744    0.13678    1.000
    Mo12     Mo       0.16594    0.33408    0.06737    1.000
    S13      S        0.08244    0.41744    0.99867    1.000
    S14      S        0.08287    0.41738    0.13664    1.000
    Mo15     Mo       0.41594    0.33394    0.06760    1.000
    S16      S        0.33268    0.41727    0.99831    1.000
    S17      S        0.33247    0.41721    0.13584    1.000
    Mo18     Mo       0.66578    0.33416    0.06787    1.000
    S19      S        0.58264    0.41732    0.99876    1.000
    S20      S        0.58216    0.41719    0.13689    1.000
    Mo21     Mo       0.91589    0.33411    0.06780    1.000
    S22      S        0.83248    0.41736    0.99890    1.000
    S23      S        0.83253    0.41742    0.13683    1.000
    Mo24     Mo       0.16600    0.58402    0.06765    1.000
    S25      S        0.08259    0.66741    0.99885    1.000
    S26      S        0.08280    0.66722    0.13675    1.000
    Mo27     Mo       0.41603    0.58398    0.06739    1.000
    S28      S        0.33269    0.66758    0.99865    1.000
    S29      S        0.33273    0.66722    0.13653    1.000
    Mo30     Mo       0.66580    0.58375    0.06782    1.000
    S31      S        0.58298    0.66743    0.99871    1.000
    S32      S        0.58244    0.66711    0.13669    1.000
    Mo33     Mo       0.91598    0.58400    0.06786    1.000
    S34      S        0.83266    0.66727    0.99892    1.000
    S35      S        0.83246    0.66717    0.13681    1.000
    Mo36     Mo       0.16605    0.83397    0.06786    1.000
    S37      S        0.08260    0.91721    0.99896    1.000
    S38      S        0.08267    0.91731    0.13679    1.000
    Mo39     Mo       0.41604    0.83414    0.06777    1.000
    S40      S        0.33271    0.91747    0.99889    1.000
    S41      S        0.33265    0.91733    0.13684    1.000
    Mo42     Mo       0.66598    0.83398    0.06778    1.000
    S43      S        0.58270    0.91743    0.99887    1.000
    S44      S        0.58268    0.91738    0.13677    1.000
    Mo45     Mo       0.91590    0.83394    0.06787    1.000
    S46      S        0.83268    0.91739    0.99889    1.000
    S47      S        0.83257    0.91730    0.13680    1.000
    H48      H        0.40493    0.60967    0.33527    1.000
    N49      N        0.23837    0.40528    0.28189    1.000
    H50      H        0.19681    0.45224    0.28597    1.000
    H51      H        0.18962    0.31869    0.27200    1.000
    C52      C        0.35933    0.45833    0.28029    1.000
    O53      O        0.40962    0.40185    0.26994    1.000
    C54      C        0.42519    0.59078    0.29187    1.000
    H55      H        0.39940    0.63623    0.26030    1.000
    H56      H        0.51943    0.62422    0.28840    1.000
