# CIF file generated by openbabel 3.1.0, see https://openbabel.org
data_I
_chemical_name_common ''
_cell_length_a 13.105
_cell_length_b 13.105
_cell_length_c 23.0122
_cell_angle_alpha 90
_cell_angle_beta 90
_cell_angle_gamma 120
loop_
    _atom_site_label
    _atom_site_type_symbol
    _atom_site_fract_x
    _atom_site_fract_y
    _atom_site_fract_z
    _atom_site_occupancy
    Mo0      Mo       0.16356    0.07914    0.06769    1.000
    S1       S        0.08031    0.16228    0.99856    1.000
    S2       S        0.07993    0.16187    0.13657    1.000
    Mo3      Mo       0.41379    0.07929    0.06789    1.000
    S4       S        0.33047    0.16245    0.99880    1.000
    S5       S        0.33018    0.16257    0.13680    1.000
    Mo6      Mo       0.66378    0.07924    0.06793    1.000
    S7       S        0.58055    0.16272    0.99901    1.000
    S8       S        0.58041    0.16259    0.13693    1.000
    Mo9      Mo       0.91381    0.07908    0.06760    1.000
    S10      S        0.83028    0.16261    0.99889    1.000
    S11      S        0.83061    0.16232    0.13682    1.000
    Mo12     Mo       0.16351    0.32858    0.06778    1.000
    S13      S        0.08038    0.41239    0.99898    1.000
    S14      S        0.08055    0.41210    0.13696    1.000
    Mo15     Mo       0.41393    0.32909    0.06768    1.000
    S16      S        0.33041    0.41233    0.99873    1.000
    S17      S        0.33056    0.41226    0.13628    1.000
    Mo18     Mo       0.66393    0.32928    0.06800    1.000
    S19      S        0.58085    0.41270    0.99893    1.000
    S20      S        0.58039    0.41255    0.13690    1.000
    Mo21     Mo       0.91382    0.32909    0.06798    1.000
    S22      S        0.83059    0.41252    0.99906    1.000
    S23      S        0.83059    0.41242    0.13699    1.000
    Mo24     Mo       0.16383    0.57899    0.06798    1.000
    S25      S        0.08054    0.66243    0.99906    1.000
    S26      S        0.08064    0.66252    0.13696    1.000
    Mo27     Mo       0.41386    0.57909    0.06771    1.000
    S28      S        0.33040    0.66244    0.99895    1.000
    S29      S        0.33060    0.66228    0.13690    1.000
    Mo30     Mo       0.66396    0.57923    0.06794    1.000
    S31      S        0.58061    0.66246    0.99890    1.000
    S32      S        0.58036    0.66238    0.13688    1.000
    Mo33     Mo       0.91391    0.57912    0.06803    1.000
    S34      S        0.83068    0.66243    0.99900    1.000
    S35      S        0.83066    0.66265    0.13691    1.000
    Mo36     Mo       0.16389    0.82920    0.06794    1.000
    S37      S        0.08042    0.91225    0.99888    1.000
    S38      S        0.08048    0.91270    0.13681    1.000
    Mo39     Mo       0.41381    0.82917    0.06793    1.000
    S40      S        0.33054    0.91257    0.99899    1.000
    S41      S        0.33057    0.91269    0.13689    1.000
    Mo42     Mo       0.66379    0.82917    0.06787    1.000
    S43      S        0.58041    0.91259    0.99897    1.000
    S44      S        0.58050    0.91256    0.13687    1.000
    Mo45     Mo       0.91381    0.82916    0.06786    1.000
    S46      S        0.83030    0.91227    0.99880    1.000
    S47      S        0.83058    0.91271    0.13676    1.000
    H48      H        0.38497    0.35876    0.33721    1.000
    N49      N        0.25849    0.45844    0.28295    1.000
    H50      H        0.33461    0.53465    0.28945    1.000
    H51      H        0.18497    0.46226    0.27384    1.000
    C52      C        0.25422    0.35177    0.27784    1.000
    O53      O        0.16204    0.26080    0.26498    1.000
    C54      C        0.36932    0.35317    0.29034    1.000
    H55      H        0.44482    0.42815    0.26977    1.000
    H56      H        0.36179    0.27152    0.27431    1.000
