# CIF file generated by openbabel 3.1.0, see https://openbabel.org
data_I
_chemical_name_common ''
_cell_length_a 13.105
_cell_length_b 13.105
_cell_length_c 23.0122
_cell_angle_alpha 90
_cell_angle_beta 90
_cell_angle_gamma 120
loop_
    _atom_site_label
    _atom_site_type_symbol
    _atom_site_fract_x
    _atom_site_fract_y
    _atom_site_fract_z
    _atom_site_occupancy
    Mo0      Mo       0.16856    0.08240    0.06831    1.000
    S1       S        0.08511    0.16546    0.99924    1.000
    S2       S        0.08527    0.16593    0.13720    1.000
    Mo3      Mo       0.41856    0.08229    0.06834    1.000
    S4       S        0.33516    0.16551    0.99934    1.000
    S5       S        0.33532    0.16589    0.13727    1.000
    Mo6      Mo       0.66845    0.08213    0.06827    1.000
    S7       S        0.58508    0.16537    0.99929    1.000
    S8       S        0.58534    0.16570    0.13720    1.000
    Mo9      Mo       0.91851    0.08237    0.06826    1.000
    S10      S        0.83509    0.16555    0.99929    1.000
    S11      S        0.83518    0.16573    0.13719    1.000
    Mo12     Mo       0.16844    0.33231    0.06799    1.000
    S13      S        0.08520    0.41575    0.99910    1.000
    S14      S        0.08542    0.41585    0.13706    1.000
    Mo15     Mo       0.41861    0.33234    0.06809    1.000
    S16      S        0.33526    0.41572    0.99907    1.000
    S17      S        0.33506    0.41561    0.13675    1.000
    Mo18     Mo       0.66863    0.33226    0.06807    1.000
    S19      S        0.58514    0.41547    0.99905    1.000
    S20      S        0.58548    0.41590    0.13695    1.000
    Mo21     Mo       0.91860    0.33236    0.06813    1.000
    S22      S        0.83529    0.41564    0.99914    1.000
    S23      S        0.83529    0.41574    0.13702    1.000
    Mo24     Mo       0.16877    0.58250    0.06804    1.000
    S25      S        0.08539    0.66598    0.99920    1.000
    S26      S        0.08529    0.66561    0.13710    1.000
    Mo27     Mo       0.41878    0.58261    0.06805    1.000
    S28      S        0.33538    0.66591    0.99911    1.000
    S29      S        0.33516    0.66556    0.13713    1.000
    Mo30     Mo       0.66867    0.58247    0.06778    1.000
    S31      S        0.58531    0.66588    0.99890    1.000
    S32      S        0.58574    0.66574    0.13673    1.000
    Mo33     Mo       0.91865    0.58240    0.06808    1.000
    S34      S        0.83563    0.66603    0.99908    1.000
    S35      S        0.83510    0.66567    0.13700    1.000
    Mo36     Mo       0.16860    0.83243    0.06828    1.000
    S37      S        0.08532    0.91581    0.99932    1.000
    S38      S        0.08510    0.91568    0.13723    1.000
    Mo39     Mo       0.41856    0.83222    0.06830    1.000
    S40      S        0.33527    0.91571    0.99938    1.000
    S41      S        0.33521    0.91552    0.13729    1.000
    Mo42     Mo       0.66853    0.83231    0.06810    1.000
    S43      S        0.58511    0.91568    0.99926    1.000
    S44      S        0.58518    0.91535    0.13728    1.000
    Mo45     Mo       0.91856    0.83253    0.06819    1.000
    S46      S        0.83526    0.91588    0.99922    1.000
    S47      S        0.83498    0.91564    0.13718    1.000
    H48      H        0.28708    0.47186    0.33843    1.000
    N49      N        0.48670    0.49892    0.27733    1.000
    H50      H        0.44440    0.41063    0.28264    1.000
    H51      H        0.57295    0.54063    0.26637    1.000
    C52      C        0.42794    0.56137    0.27638    1.000
    O53      O        0.47892    0.66764    0.26470    1.000
    C54      C        0.29721    0.49101    0.29185    1.000
    H55      H        0.25225    0.40716    0.26849    1.000
    H56      H        0.25627    0.54323    0.28118    1.000
