# CIF file generated by openbabel 3.1.0, see https://openbabel.org
data_I
_chemical_name_common ''
_cell_length_a 13.105
_cell_length_b 13.105
_cell_length_c 23.0122
_cell_angle_alpha 90
_cell_angle_beta 90
_cell_angle_gamma 120
loop_
    _atom_site_label
    _atom_site_type_symbol
    _atom_site_fract_x
    _atom_site_fract_y
    _atom_site_fract_z
    _atom_site_occupancy
    Mo0      Mo       0.16719    0.08340    0.06851    1.000
    S1       S        0.08358    0.16630    0.99940    1.000
    S2       S        0.08383    0.16700    0.13735    1.000
    Mo3      Mo       0.41724    0.08332    0.06841    1.000
    S4       S        0.33380    0.16659    0.99947    1.000
    S5       S        0.33418    0.16682    0.13728    1.000
    Mo6      Mo       0.66712    0.08340    0.06846    1.000
    S7       S        0.58387    0.16684    0.99948    1.000
    S8       S        0.58386    0.16687    0.13743    1.000
    Mo9      Mo       0.91698    0.08318    0.06846    1.000
    S10      S        0.83373    0.16656    0.99948    1.000
    S11      S        0.83372    0.16664    0.13742    1.000
    Mo12     Mo       0.16702    0.33337    0.06799    1.000
    S13      S        0.08358    0.41685    0.99932    1.000
    S14      S        0.08385    0.41655    0.13727    1.000
    Mo15     Mo       0.41732    0.33353    0.06831    1.000
    S16      S        0.33392    0.41677    0.99908    1.000
    S17      S        0.33355    0.41688    0.13650    1.000
    Mo18     Mo       0.66702    0.33356    0.06845    1.000
    S19      S        0.58388    0.41685    0.99941    1.000
    S20      S        0.58357    0.41665    0.13755    1.000
    Mo21     Mo       0.91701    0.33329    0.06841    1.000
    S22      S        0.83377    0.41682    0.99955    1.000
    S23      S        0.83368    0.41662    0.13748    1.000
    Mo24     Mo       0.16724    0.58342    0.06844    1.000
    S25      S        0.08390    0.66683    0.99958    1.000
    S26      S        0.08398    0.66664    0.13751    1.000
    Mo27     Mo       0.41727    0.58353    0.06817    1.000
    S28      S        0.33386    0.66697    0.99943    1.000
    S29      S        0.33396    0.66657    0.13744    1.000
    Mo30     Mo       0.66697    0.58318    0.06856    1.000
    S31      S        0.58409    0.66682    0.99944    1.000
    S32      S        0.58352    0.66647    0.13750    1.000
    Mo33     Mo       0.91722    0.58335    0.06858    1.000
    S34      S        0.83379    0.66657    0.99965    1.000
    S35      S        0.83363    0.66642    0.13756    1.000
    Mo36     Mo       0.16721    0.83340    0.06860    1.000
    S37      S        0.08379    0.91667    0.99964    1.000
    S38      S        0.08386    0.91679    0.13757    1.000
    Mo39     Mo       0.41716    0.83339    0.06855    1.000
    S40      S        0.33375    0.91658    0.99957    1.000
    S41      S        0.33393    0.91679    0.13753    1.000
    Mo42     Mo       0.66706    0.83321    0.06852    1.000
    S43      S        0.58374    0.91664    0.99956    1.000
    S44      S        0.58385    0.91674    0.13747    1.000
    Mo45     Mo       0.91709    0.83321    0.06862    1.000
    S46      S        0.83375    0.91642    0.99960    1.000
    S47      S        0.83367    0.91651    0.13752    1.000
    H48      H        0.25134    0.43517    0.33467    1.000
    N49      N        0.27296    0.25345    0.27751    1.000
    H50      H        0.18402    0.21093    0.27849    1.000
    H51      H        0.31252    0.20625    0.26769    1.000
    C52      C        0.33996    0.37451    0.27717    1.000
    O53      O        0.44761    0.42601    0.26924    1.000
    C54      C        0.27200    0.43913    0.28839    1.000
    H55      H        0.18909    0.39981    0.26420    1.000
    H56      H        0.32648    0.53102    0.27578    1.000
