# CIF file generated by openbabel 3.1.0, see https://openbabel.org
data_I
_chemical_name_common ''
_cell_length_a 13.105
_cell_length_b 13.105
_cell_length_c 23.0122
_cell_angle_alpha 90
_cell_angle_beta 90
_cell_angle_gamma 120
loop_
    _atom_site_label
    _atom_site_type_symbol
    _atom_site_fract_x
    _atom_site_fract_y
    _atom_site_fract_z
    _atom_site_occupancy
    Mo0      Mo       0.16503    0.08226    0.06814    1.000
    S1       S        0.08130    0.16511    0.99906    1.000
    S2       S        0.08179    0.16582    0.13698    1.000
    Mo3      Mo       0.41496    0.08214    0.06835    1.000
    S4       S        0.33172    0.16531    0.99917    1.000
    S5       S        0.33170    0.16588    0.13716    1.000
    Mo6      Mo       0.66499    0.08220    0.06838    1.000
    S7       S        0.58164    0.16550    0.99944    1.000
    S8       S        0.58161    0.16552    0.13734    1.000
    Mo9      Mo       0.91485    0.08214    0.06824    1.000
    S10      S        0.83156    0.16558    0.99935    1.000
    S11      S        0.83181    0.16568    0.13726    1.000
    Mo12     Mo       0.16484    0.33217    0.06768    1.000
    S13      S        0.08150    0.41584    0.99909    1.000
    S14      S        0.08200    0.41556    0.13707    1.000
    Mo15     Mo       0.41490    0.33221    0.06787    1.000
    S16      S        0.33174    0.41573    0.99875    1.000
    S17      S        0.33128    0.41541    0.13611    1.000
    Mo18     Mo       0.66499    0.33222    0.06835    1.000
    S19      S        0.58200    0.41578    0.99929    1.000
    S20      S        0.58129    0.41556    0.13720    1.000
    Mo21     Mo       0.91504    0.33233    0.06825    1.000
    S22      S        0.83162    0.41568    0.99940    1.000
    S23      S        0.83171    0.41556    0.13731    1.000
    Mo24     Mo       0.16527    0.58237    0.06824    1.000
    S25      S        0.08165    0.66563    0.99943    1.000
    S26      S        0.08178    0.66546    0.13731    1.000
    Mo27     Mo       0.41507    0.58242    0.06804    1.000
    S28      S        0.33179    0.66591    0.99922    1.000
    S29      S        0.33184    0.66535    0.13735    1.000
    Mo30     Mo       0.66487    0.58244    0.06834    1.000
    S31      S        0.58188    0.66579    0.99925    1.000
    S32      S        0.58124    0.66539    0.13739    1.000
    Mo33     Mo       0.91497    0.58227    0.06839    1.000
    S34      S        0.83167    0.66570    0.99946    1.000
    S35      S        0.83153    0.66563    0.13733    1.000
    Mo36     Mo       0.16495    0.83222    0.06840    1.000
    S37      S        0.08162    0.91546    0.99937    1.000
    S38      S        0.08179    0.91585    0.13729    1.000
    Mo39     Mo       0.41493    0.83210    0.06840    1.000
    S40      S        0.33157    0.91544    0.99946    1.000
    S41      S        0.33158    0.91545    0.13737    1.000
    Mo42     Mo       0.66489    0.83206    0.06839    1.000
    S43      S        0.58164    0.91553    0.99947    1.000
    S44      S        0.58162    0.91545    0.13737    1.000
    Mo45     Mo       0.91501    0.83234    0.06840    1.000
    S46      S        0.83149    0.91538    0.99940    1.000
    S47      S        0.83159    0.91559    0.13734    1.000
    H48      H        0.18965    0.32228    0.33362    1.000
    N49      N        0.39443    0.35347    0.27949    1.000
    H50      H        0.34725    0.26468    0.28177    1.000
    H51      H        0.48117    0.39167    0.26981    1.000
    C52      C        0.34146    0.42147    0.27820    1.000
    O53      O        0.39856    0.52875    0.26933    1.000
    C54      C        0.20863    0.35473    0.28891    1.000
    H55      H        0.16409    0.27872    0.25988    1.000
    H56      H        0.17417    0.41388    0.28157    1.000
