# CIF file generated by openbabel 3.1.0, see https://openbabel.org
data_I
_chemical_name_common ''
_cell_length_a 13.105
_cell_length_b 13.105
_cell_length_c 23.0122
_cell_angle_alpha 90
_cell_angle_beta 90
_cell_angle_gamma 120
loop_
    _atom_site_label
    _atom_site_type_symbol
    _atom_site_fract_x
    _atom_site_fract_y
    _atom_site_fract_z
    _atom_site_occupancy
    Mo0      Mo       0.16544    0.08207    0.06842    1.000
    S1       S        0.08211    0.16529    0.99939    1.000
    S2       S        0.08224    0.16558    0.13735    1.000
    Mo3      Mo       0.41540    0.08206    0.06846    1.000
    S4       S        0.33208    0.16538    0.99946    1.000
    S5       S        0.33211    0.16556    0.13740    1.000
    Mo6      Mo       0.66541    0.08189    0.06842    1.000
    S7       S        0.58205    0.16527    0.99950    1.000
    S8       S        0.58209    0.16525    0.13738    1.000
    Mo9      Mo       0.91550    0.08201    0.06841    1.000
    S10      S        0.83212    0.16525    0.99945    1.000
    S11      S        0.83217    0.16532    0.13733    1.000
    Mo12     Mo       0.16544    0.33206    0.06820    1.000
    S13      S        0.08220    0.41544    0.99929    1.000
    S14      S        0.08231    0.41554    0.13724    1.000
    Mo15     Mo       0.41547    0.33209    0.06831    1.000
    S16      S        0.33235    0.41572    0.99933    1.000
    S17      S        0.33198    0.41533    0.13703    1.000
    Mo18     Mo       0.66545    0.33195    0.06841    1.000
    S19      S        0.58208    0.41527    0.99939    1.000
    S20      S        0.58214    0.41552    0.13734    1.000
    Mo21     Mo       0.91551    0.33199    0.06833    1.000
    S22      S        0.83204    0.41516    0.99942    1.000
    S23      S        0.83221    0.41530    0.13732    1.000
    Mo24     Mo       0.16567    0.58222    0.06819    1.000
    S25      S        0.08212    0.66548    0.99937    1.000
    S26      S        0.08222    0.66526    0.13728    1.000
    Mo27     Mo       0.41569    0.58248    0.06840    1.000
    S28      S        0.33241    0.66575    0.99933    1.000
    S29      S        0.33193    0.66558    0.13727    1.000
    Mo30     Mo       0.66547    0.58212    0.06820    1.000
    S31      S        0.58227    0.66564    0.99932    1.000
    S32      S        0.58257    0.66556    0.13721    1.000
    Mo33     Mo       0.91546    0.58191    0.06833    1.000
    S34      S        0.83229    0.66541    0.99938    1.000
    S35      S        0.83202    0.66524    0.13727    1.000
    Mo36     Mo       0.16549    0.83206    0.06840    1.000
    S37      S        0.08212    0.91536    0.99947    1.000
    S38      S        0.08208    0.91533    0.13733    1.000
    Mo39     Mo       0.41553    0.83213    0.06848    1.000
    S40      S        0.33222    0.91549    0.99949    1.000
    S41      S        0.33209    0.91536    0.13743    1.000
    Mo42     Mo       0.66550    0.83209    0.06844    1.000
    S43      S        0.58213    0.91537    0.99948    1.000
    S44      S        0.58216    0.91531    0.13750    1.000
    Mo45     Mo       0.91543    0.83204    0.06838    1.000
    S46      S        0.83210    0.91540    0.99944    1.000
    S47      S        0.83211    0.91533    0.13740    1.000
    H48      H        0.26331    0.47314    0.33332    1.000
    N49      N        0.46851    0.50698    0.27999    1.000
    H50      H        0.42339    0.41846    0.28432    1.000
    H51      H        0.55488    0.54628    0.26941    1.000
    C52      C        0.41243    0.57186    0.27627    1.000
    O53      O        0.46675    0.67817    0.26460    1.000
    C54      C        0.28004    0.50358    0.28825    1.000
    H55      H        0.23549    0.42628    0.26005    1.000
    H56      H        0.24387    0.56119    0.28063    1.000
