# CIF file generated by openbabel 3.1.0, see https://openbabel.org
data_I
_chemical_name_common ''
_cell_length_a 13.105
_cell_length_b 13.105
_cell_length_c 23.0122
_cell_angle_alpha 90
_cell_angle_beta 90
_cell_angle_gamma 120
loop_
    _atom_site_label
    _atom_site_type_symbol
    _atom_site_fract_x
    _atom_site_fract_y
    _atom_site_fract_z
    _atom_site_occupancy
    Mo0      Mo       0.16606    0.08201    0.06802    1.000
    S1       S        0.08250    0.16505    0.99893    1.000
    S2       S        0.08244    0.16537    0.13680    1.000
    Mo3      Mo       0.41590    0.08195    0.06816    1.000
    S4       S        0.33270    0.16526    0.99912    1.000
    S5       S        0.33272    0.16551    0.13711    1.000
    Mo6      Mo       0.66587    0.08192    0.06808    1.000
    S7       S        0.58247    0.16524    0.99916    1.000
    S8       S        0.58258    0.16534    0.13710    1.000
    Mo9      Mo       0.91580    0.08178    0.06791    1.000
    S10      S        0.83248    0.16527    0.99907    1.000
    S11      S        0.83258    0.16515    0.13700    1.000
    Mo12     Mo       0.16583    0.33194    0.06770    1.000
    S13      S        0.08240    0.41540    0.99902    1.000
    S14      S        0.08274    0.41516    0.13702    1.000
    Mo15     Mo       0.41612    0.33204    0.06804    1.000
    S16      S        0.33269    0.41528    0.99880    1.000
    S17      S        0.33248    0.41558    0.13627    1.000
    Mo18     Mo       0.66575    0.33199    0.06809    1.000
    S19      S        0.58259    0.41520    0.99900    1.000
    S20      S        0.58246    0.41521    0.13714    1.000
    Mo21     Mo       0.91583    0.33187    0.06809    1.000
    S22      S        0.83252    0.41526    0.99917    1.000
    S23      S        0.83240    0.41514    0.13710    1.000
    Mo24     Mo       0.16594    0.58198    0.06808    1.000
    S25      S        0.08257    0.66527    0.99920    1.000
    S26      S        0.08259    0.66516    0.13711    1.000
    Mo27     Mo       0.41594    0.58210    0.06775    1.000
    S28      S        0.33250    0.66551    0.99901    1.000
    S29      S        0.33273    0.66523    0.13701    1.000
    Mo30     Mo       0.66575    0.58163    0.06805    1.000
    S31      S        0.58274    0.66528    0.99897    1.000
    S32      S        0.58233    0.66501    0.13699    1.000
    Mo33     Mo       0.91589    0.58185    0.06816    1.000
    S34      S        0.83257    0.66510    0.99916    1.000
    S35      S        0.83235    0.66505    0.13706    1.000
    Mo36     Mo       0.16601    0.83191    0.06818    1.000
    S37      S        0.08276    0.91524    0.99917    1.000
    S38      S        0.08273    0.91541    0.13709    1.000
    Mo39     Mo       0.41600    0.83200    0.06810    1.000
    S40      S        0.33260    0.91531    0.99918    1.000
    S41      S        0.33270    0.91531    0.13714    1.000
    Mo42     Mo       0.66592    0.83180    0.06801    1.000
    S43      S        0.58261    0.91527    0.99911    1.000
    S44      S        0.58270    0.91520    0.13702    1.000
    Mo45     Mo       0.91595    0.83180    0.06809    1.000
    S46      S        0.83262    0.91499    0.99905    1.000
    S47      S        0.83260    0.91515    0.13698    1.000
    H48      H        0.31495    0.47338    0.33838    1.000
    N49      N        0.23084    0.25203    0.27936    1.000
    H50      H        0.15139    0.24524    0.28533    1.000
    H51      H        0.23353    0.17855    0.26870    1.000
    C52      C        0.33352    0.35906    0.27714    1.000
    O53      O        0.42904    0.36669    0.26522    1.000
    C54      C        0.32091    0.46606    0.29133    1.000
    H55      H        0.24193    0.45951    0.27163    1.000
    H56      H        0.39847    0.54506    0.27556    1.000
