# CIF file generated by openbabel 3.1.0, see https://openbabel.org
data_I
_chemical_name_common ''
_cell_length_a 13.105
_cell_length_b 13.105
_cell_length_c 23.0122
_cell_angle_alpha 90
_cell_angle_beta 90
_cell_angle_gamma 120
loop_
    _atom_site_label
    _atom_site_type_symbol
    _atom_site_fract_x
    _atom_site_fract_y
    _atom_site_fract_z
    _atom_site_occupancy
    Mo0      Mo       0.16513    0.08127    0.06784    1.000
    S1       S        0.08165    0.16437    0.99882    1.000
    S2       S        0.08202    0.16496    0.13686    1.000
    Mo3      Mo       0.41529    0.08109    0.06782    1.000
    S4       S        0.33178    0.16418    0.99876    1.000
    S5       S        0.33201    0.16460    0.13665    1.000
    Mo6      Mo       0.66530    0.08120    0.06794    1.000
    S7       S        0.58200    0.16447    0.99892    1.000
    S8       S        0.58196    0.16462    0.13684    1.000
    Mo9      Mo       0.91527    0.08122    0.06795    1.000
    S10      S        0.83180    0.16427    0.99889    1.000
    S11      S        0.83216    0.16482    0.13686    1.000
    Mo12     Mo       0.16486    0.33124    0.06763    1.000
    S13      S        0.08171    0.41458    0.99856    1.000
    S14      S        0.08147    0.41436    0.13659    1.000
    Mo15     Mo       0.41521    0.33107    0.06749    1.000
    S16      S        0.33180    0.41452    0.99860    1.000
    S17      S        0.33175    0.41418    0.13608    1.000
    Mo18     Mo       0.66524    0.33118    0.06784    1.000
    S19      S        0.58216    0.41473    0.99882    1.000
    S20      S        0.58158    0.41433    0.13681    1.000
    Mo21     Mo       0.91529    0.33124    0.06764    1.000
    S22      S        0.83186    0.41473    0.99885    1.000
    S23      S        0.83196    0.41436    0.13680    1.000
    Mo24     Mo       0.16498    0.58087    0.06780    1.000
    S25      S        0.08184    0.66454    0.99895    1.000
    S26      S        0.08193    0.66433    0.13690    1.000
    Mo27     Mo       0.41522    0.58111    0.06774    1.000
    S28      S        0.33192    0.66455    0.99893    1.000
    S29      S        0.33170    0.66408    0.13691    1.000
    Mo30     Mo       0.66522    0.58121    0.06797    1.000
    S31      S        0.58209    0.66472    0.99899    1.000
    S32      S        0.58164    0.66435    0.13696    1.000
    Mo33     Mo       0.91522    0.58118    0.06796    1.000
    S34      S        0.83186    0.66455    0.99906    1.000
    S35      S        0.83187    0.66441    0.13697    1.000
    Mo36     Mo       0.16515    0.83115    0.06795    1.000
    S37      S        0.08176    0.91452    0.99900    1.000
    S38      S        0.08201    0.91477    0.13695    1.000
    Mo39     Mo       0.41522    0.83109    0.06796    1.000
    S40      S        0.33177    0.91429    0.99899    1.000
    S41      S        0.33187    0.91447    0.13688    1.000
    Mo42     Mo       0.66524    0.83124    0.06805    1.000
    S43      S        0.58193    0.91448    0.99904    1.000
    S44      S        0.58186    0.91458    0.13698    1.000
    Mo45     Mo       0.91522    0.83116    0.06805    1.000
    S46      S        0.83190    0.91441    0.99909    1.000
    S47      S        0.83201    0.91466    0.13700    1.000
    H48      H        0.29461    0.27611    0.33300    1.000
    N49      N        0.36612    0.49542    0.28724    1.000
    H50      H        0.44270    0.49728    0.29544    1.000
    H51      H        0.36903    0.57220    0.27780    1.000
    C52      C        0.26256    0.39159    0.27784    1.000
    O53      O        0.17184    0.39058    0.26219    1.000
    C54      C        0.26809    0.27939    0.28832    1.000
    H55      H        0.33236    0.27581    0.25928    1.000
    H56      H        0.18160    0.20336    0.28016    1.000
