# CIF file generated by openbabel 3.1.0, see https://openbabel.org
data_I
_chemical_name_common ''
_cell_length_a 13.105
_cell_length_b 13.105
_cell_length_c 23.0122
_cell_angle_alpha 90
_cell_angle_beta 90
_cell_angle_gamma 120
loop_
    _atom_site_label
    _atom_site_type_symbol
    _atom_site_fract_x
    _atom_site_fract_y
    _atom_site_fract_z
    _atom_site_occupancy
    Mo0      Mo       0.16753    0.08491    0.06847    1.000
    S1       S        0.08415    0.16793    0.99929    1.000
    S2       S        0.08424    0.16854    0.13730    1.000
    Mo3      Mo       0.41725    0.08487    0.06841    1.000
    S4       S        0.33386    0.16783    0.99933    1.000
    S5       S        0.33420    0.16855    0.13744    1.000
    Mo6      Mo       0.66727    0.08475    0.06825    1.000
    S7       S        0.58380    0.16800    0.99936    1.000
    S8       S        0.58402    0.16814    0.13730    1.000
    Mo9      Mo       0.91750    0.08487    0.06821    1.000
    S10      S        0.83385    0.16796    0.99922    1.000
    S11      S        0.83402    0.16810    0.13716    1.000
    Mo12     Mo       0.16741    0.33484    0.06800    1.000
    S13      S        0.08383    0.41810    0.99910    1.000
    S14      S        0.08368    0.41784    0.13697    1.000
    Mo15     Mo       0.41736    0.33471    0.06806    1.000
    S16      S        0.33399    0.41789    0.99883    1.000
    S17      S        0.33431    0.41834    0.13645    1.000
    Mo18     Mo       0.66722    0.33474    0.06826    1.000
    S19      S        0.58410    0.41800    0.99915    1.000
    S20      S        0.58378    0.41814    0.13720    1.000
    Mo21     Mo       0.91713    0.33466    0.06808    1.000
    S22      S        0.83384    0.41808    0.99925    1.000
    S23      S        0.83388    0.41792    0.13718    1.000
    Mo24     Mo       0.16724    0.58468    0.06816    1.000
    S25      S        0.08399    0.66826    0.99936    1.000
    S26      S        0.08397    0.66789    0.13727    1.000
    Mo27     Mo       0.41743    0.58476    0.06776    1.000
    S28      S        0.33384    0.66825    0.99909    1.000
    S29      S        0.33413    0.66790    0.13704    1.000
    Mo30     Mo       0.66742    0.58469    0.06807    1.000
    S31      S        0.58434    0.66819    0.99896    1.000
    S32      S        0.58409    0.66809    0.13685    1.000
    Mo33     Mo       0.91730    0.58469    0.06828    1.000
    S34      S        0.83428    0.66821    0.99926    1.000
    S35      S        0.83390    0.66798    0.13719    1.000
    Mo36     Mo       0.16737    0.83480    0.06843    1.000
    S37      S        0.08422    0.91820    0.99947    1.000
    S38      S        0.08401    0.91811    0.13741    1.000
    Mo39     Mo       0.41735    0.83482    0.06818    1.000
    S40      S        0.33389    0.91824    0.99942    1.000
    S41      S        0.33414    0.91810    0.13733    1.000
    Mo42     Mo       0.66748    0.83484    0.06802    1.000
    S43      S        0.58402    0.91827    0.99920    1.000
    S44      S        0.58403    0.91792    0.13711    1.000
    Mo45     Mo       0.91746    0.83479    0.06830    1.000
    S46      S        0.83434    0.91820    0.99923    1.000
    S47      S        0.83399    0.91814    0.13713    1.000
    H48      H        0.44751    0.58765    0.33349    1.000
    N49      N        0.22282    0.44811    0.27747    1.000
    H50      H        0.22362    0.52552    0.27680    1.000
    H51      H        0.14487    0.37269    0.27274    1.000
    C52      C        0.32441    0.44184    0.28076    1.000
    O53      O        0.32251    0.34676    0.27852    1.000
    C54      C        0.43790    0.55991    0.28805    1.000
    H55      H        0.43808    0.62904    0.26137    1.000
    H56      H        0.51255    0.54943    0.27622    1.000
