# CIF file generated by openbabel 3.1.0, see https://openbabel.org
data_I
_chemical_name_common ''
_cell_length_a 13.105
_cell_length_b 13.105
_cell_length_c 23.0122
_cell_angle_alpha 90
_cell_angle_beta 90
_cell_angle_gamma 120
loop_
    _atom_site_label
    _atom_site_type_symbol
    _atom_site_fract_x
    _atom_site_fract_y
    _atom_site_fract_z
    _atom_site_occupancy
    Mo0      Mo       0.16398    0.08160    0.06799    1.000
    S1       S        0.08026    0.16451    0.99893    1.000
    S2       S        0.08061    0.16500    0.13682    1.000
    Mo3      Mo       0.41408    0.08163    0.06811    1.000
    S4       S        0.33060    0.16460    0.99892    1.000
    S5       S        0.33081    0.16545    0.13693    1.000
    Mo6      Mo       0.66406    0.08162    0.06825    1.000
    S7       S        0.58084    0.16492    0.99921    1.000
    S8       S        0.58069    0.16506    0.13710    1.000
    Mo9      Mo       0.91383    0.08148    0.06809    1.000
    S10      S        0.83057    0.16492    0.99922    1.000
    S11      S        0.83088    0.16510    0.13714    1.000
    Mo12     Mo       0.16380    0.33149    0.06764    1.000
    S13      S        0.08065    0.41527    0.99902    1.000
    S14      S        0.08107    0.41485    0.13709    1.000
    Mo15     Mo       0.41406    0.33161    0.06753    1.000
    S16      S        0.33064    0.41514    0.99862    1.000
    S17      S        0.33046    0.41450    0.13595    1.000
    Mo18     Mo       0.66417    0.33168    0.06809    1.000
    S19      S        0.58121    0.41525    0.99898    1.000
    S20      S        0.58035    0.41481    0.13693    1.000
    Mo21     Mo       0.91422    0.33173    0.06813    1.000
    S22      S        0.83096    0.41522    0.99923    1.000
    S23      S        0.83081    0.41495    0.13715    1.000
    Mo24     Mo       0.16435    0.58176    0.06824    1.000
    S25      S        0.08080    0.66504    0.99935    1.000
    S26      S        0.08094    0.66496    0.13726    1.000
    Mo27     Mo       0.41386    0.58173    0.06795    1.000
    S28      S        0.33071    0.66521    0.99910    1.000
    S29      S        0.33090    0.66490    0.13727    1.000
    Mo30     Mo       0.66404    0.58172    0.06814    1.000
    S31      S        0.58080    0.66512    0.99918    1.000
    S32      S        0.58021    0.66460    0.13721    1.000
    Mo33     Mo       0.91416    0.58172    0.06829    1.000
    S34      S        0.83088    0.66510    0.99931    1.000
    S35      S        0.83064    0.66498    0.13721    1.000
    Mo36     Mo       0.16412    0.83166    0.06828    1.000
    S37      S        0.08066    0.91476    0.99923    1.000
    S38      S        0.08091    0.91524    0.13715    1.000
    Mo39     Mo       0.41402    0.83148    0.06823    1.000
    S40      S        0.33068    0.91482    0.99927    1.000
    S41      S        0.33085    0.91505    0.13720    1.000
    Mo42     Mo       0.66398    0.83155    0.06827    1.000
    S43      S        0.58078    0.91498    0.99932    1.000
    S44      S        0.58070    0.91490    0.13724    1.000
    Mo45     Mo       0.91409    0.83167    0.06826    1.000
    S46      S        0.83057    0.91473    0.99925    1.000
    S47      S        0.83068    0.91497    0.13720    1.000
    H48      H        0.20045    0.28584    0.33418    1.000
    N49      N        0.42402    0.42129    0.28211    1.000
    H50      H        0.42371    0.34473    0.28773    1.000
    H51      H        0.50179    0.49522    0.27428    1.000
    C52      C        0.32181    0.42613    0.27778    1.000
    O53      O        0.32308    0.51900    0.26657    1.000
    C54      C        0.20832    0.30958    0.28819    1.000
    H55      H        0.20689    0.23794    0.26315    1.000
    H56      H        0.13353    0.31932    0.27577    1.000
