# CIF file generated by openbabel 3.1.0, see https://openbabel.org
data_I
_chemical_name_common ''
_cell_length_a 13.105
_cell_length_b 13.105
_cell_length_c 23.0122
_cell_angle_alpha 90
_cell_angle_beta 90
_cell_angle_gamma 120
loop_
    _atom_site_label
    _atom_site_type_symbol
    _atom_site_fract_x
    _atom_site_fract_y
    _atom_site_fract_z
    _atom_site_occupancy
    Mo0      Mo       0.16860    0.08773    0.06736    1.000
    S1       S        0.08530    0.17084    0.99821    1.000
    S2       S        0.08538    0.17135    0.13618    1.000
    Mo3      Mo       0.41859    0.08781    0.06738    1.000
    S4       S        0.33524    0.17108    0.99841    1.000
    S5       S        0.33535    0.17143    0.13637    1.000
    Mo6      Mo       0.66861    0.08777    0.06722    1.000
    S7       S        0.58516    0.17112    0.99837    1.000
    S8       S        0.58531    0.17110    0.13628    1.000
    Mo9      Mo       0.91863    0.08770    0.06717    1.000
    S10      S        0.83527    0.17112    0.99829    1.000
    S11      S        0.83529    0.17100    0.13615    1.000
    Mo12     Mo       0.16859    0.33776    0.06692    1.000
    S13      S        0.08516    0.42122    0.99819    1.000
    S14      S        0.08555    0.42109    0.13617    1.000
    Mo15     Mo       0.41869    0.33794    0.06721    1.000
    S16      S        0.33542    0.42118    0.99801    1.000
    S17      S        0.33504    0.42129    0.13561    1.000
    Mo18     Mo       0.66844    0.33781    0.06731    1.000
    S19      S        0.58525    0.42109    0.99827    1.000
    S20      S        0.58513    0.42129    0.13634    1.000
    Mo21     Mo       0.91859    0.33776    0.06726    1.000
    S22      S        0.83515    0.42108    0.99838    1.000
    S23      S        0.83514    0.42099    0.13628    1.000
    Mo24     Mo       0.16873    0.58785    0.06720    1.000
    S25      S        0.08522    0.67113    0.99837    1.000
    S26      S        0.08533    0.67096    0.13628    1.000
    Mo27     Mo       0.41900    0.58809    0.06699    1.000
    S28      S        0.33533    0.67133    0.99816    1.000
    S29      S        0.33568    0.67134    0.13605    1.000
    Mo30     Mo       0.66843    0.58781    0.06723    1.000
    S31      S        0.58543    0.67106    0.99793    1.000
    S32      S        0.58548    0.67157    0.13599    1.000
    Mo33     Mo       0.91854    0.58768    0.06734    1.000
    S34      S        0.83529    0.67099    0.99835    1.000
    S35      S        0.83499    0.67096    0.13626    1.000
    Mo36     Mo       0.16862    0.83773    0.06735    1.000
    S37      S        0.08533    0.92103    0.99839    1.000
    S38      S        0.08517    0.92097    0.13629    1.000
    Mo39     Mo       0.41869    0.83793    0.06715    1.000
    S40      S        0.33520    0.92124    0.99834    1.000
    S41      S        0.33535    0.92106    0.13627    1.000
    Mo42     Mo       0.66860    0.83763    0.06691    1.000
    S43      S        0.58525    0.92129    0.99814    1.000
    S44      S        0.58538    0.92091    0.13607    1.000
    Mo45     Mo       0.91859    0.83765    0.06728    1.000
    S46      S        0.83554    0.92107    0.99816    1.000
    S47      S        0.83503    0.92089    0.13609    1.000
    H48      H        0.29018    0.54576    0.33702    1.000
    N49      N        0.32500    0.37132    0.29172    1.000
    H50      H        0.23980    0.32819    0.30428    1.000
    H51      H        0.36427    0.32364    0.28248    1.000
    C52      C        0.38451    0.48996    0.27963    1.000
    O53      O        0.48626    0.54011    0.26045    1.000
    C54      C        0.31613    0.55394    0.29136    1.000
    H55      H        0.23594    0.51648    0.26494    1.000
    H56      H        0.37156    0.64655    0.28041    1.000
