# CIF file generated by openbabel 3.1.0, see https://openbabel.org
data_I
_chemical_name_common ''
_cell_length_a 13.105
_cell_length_b 13.105
_cell_length_c 23.0122
_cell_angle_alpha 90
_cell_angle_beta 90
_cell_angle_gamma 120
loop_
    _atom_site_label
    _atom_site_type_symbol
    _atom_site_fract_x
    _atom_site_fract_y
    _atom_site_fract_z
    _atom_site_occupancy
    Mo0      Mo       0.16800    0.08474    0.06786    1.000
    S1       S        0.08453    0.16780    0.99885    1.000
    S2       S        0.08484    0.16829    0.13681    1.000
    Mo3      Mo       0.41788    0.08462    0.06785    1.000
    S4       S        0.33461    0.16797    0.99885    1.000
    S5       S        0.33473    0.16825    0.13678    1.000
    Mo6      Mo       0.66791    0.08465    0.06787    1.000
    S7       S        0.58462    0.16800    0.99893    1.000
    S8       S        0.58454    0.16793    0.13683    1.000
    Mo9      Mo       0.91801    0.08479    0.06789    1.000
    S10      S        0.83459    0.16800    0.99892    1.000
    S11      S        0.83468    0.16811    0.13682    1.000
    Mo12     Mo       0.16787    0.33470    0.06762    1.000
    S13      S        0.08453    0.41801    0.99869    1.000
    S14      S        0.08490    0.41835    0.13667    1.000
    Mo15     Mo       0.41796    0.33477    0.06767    1.000
    S16      S        0.33458    0.41808    0.99863    1.000
    S17      S        0.33449    0.41812    0.13637    1.000
    Mo18     Mo       0.66794    0.33467    0.06787    1.000
    S19      S        0.58475    0.41814    0.99887    1.000
    S20      S        0.58447    0.41812    0.13680    1.000
    Mo21     Mo       0.91802    0.33473    0.06779    1.000
    S22      S        0.83452    0.41791    0.99889    1.000
    S23      S        0.83470    0.41799    0.13678    1.000
    Mo24     Mo       0.16810    0.58489    0.06752    1.000
    S25      S        0.08440    0.66813    0.99877    1.000
    S26      S        0.08471    0.66788    0.13672    1.000
    Mo27     Mo       0.41782    0.58503    0.06760    1.000
    S28      S        0.33459    0.66820    0.99843    1.000
    S29      S        0.33438    0.66828    0.13638    1.000
    Mo30     Mo       0.66796    0.58485    0.06782    1.000
    S31      S        0.58481    0.66832    0.99881    1.000
    S32      S        0.58451    0.66836    0.13668    1.000
    Mo33     Mo       0.91791    0.58468    0.06781    1.000
    S34      S        0.83466    0.66817    0.99891    1.000
    S35      S        0.83459    0.66808    0.13681    1.000
    Mo36     Mo       0.16787    0.83465    0.06782    1.000
    S37      S        0.08451    0.91802    0.99891    1.000
    S38      S        0.08461    0.91802    0.13682    1.000
    Mo39     Mo       0.41780    0.83461    0.06762    1.000
    S40      S        0.33445    0.91808    0.99881    1.000
    S41      S        0.33452    0.91776    0.13676    1.000
    Mo42     Mo       0.66796    0.83495    0.06780    1.000
    S43      S        0.58470    0.91819    0.99880    1.000
    S44      S        0.58427    0.91786    0.13679    1.000
    Mo45     Mo       0.91789    0.83481    0.06788    1.000
    S46      S        0.83465    0.91823    0.99890    1.000
    S47      S        0.83451    0.91816    0.13683    1.000
    H48      H        0.23482    0.41354    0.33793    1.000
    N49      N        0.45619    0.53486    0.28054    1.000
    H50      H        0.44881    0.45441    0.28134    1.000
    H51      H        0.53569    0.60542    0.27128    1.000
    C52      C        0.35927    0.54950    0.28083    1.000
    O53      O        0.36858    0.64723    0.27360    1.000
    C54      C        0.24137    0.43792    0.29206    1.000
    H55      H        0.23180    0.36372    0.26612    1.000
    H56      H        0.17036    0.45511    0.28163    1.000
