# CIF file generated by openbabel 3.1.0, see https://openbabel.org
data_I
_chemical_name_common ''
_cell_length_a 13.105
_cell_length_b 13.105
_cell_length_c 23.0122
_cell_angle_alpha 90
_cell_angle_beta 90
_cell_angle_gamma 120
loop_
    _atom_site_label
    _atom_site_type_symbol
    _atom_site_fract_x
    _atom_site_fract_y
    _atom_site_fract_z
    _atom_site_occupancy
    Mo0      Mo       0.16413    0.08146    0.06834    1.000
    S1       S        0.08067    0.16458    0.99930    1.000
    S2       S        0.08087    0.16497    0.13727    1.000
    Mo3      Mo       0.41420    0.08145    0.06837    1.000
    S4       S        0.33079    0.16469    0.99936    1.000
    S5       S        0.33088    0.16490    0.13731    1.000
    Mo6      Mo       0.66404    0.08125    0.06837    1.000
    S7       S        0.58076    0.16463    0.99938    1.000
    S8       S        0.58088    0.16478    0.13731    1.000
    Mo9      Mo       0.91408    0.08141    0.06836    1.000
    S10      S        0.83064    0.16452    0.99936    1.000
    S11      S        0.83078    0.16478    0.13729    1.000
    Mo12     Mo       0.16394    0.33136    0.06806    1.000
    S13      S        0.08055    0.41460    0.99911    1.000
    S14      S        0.08080    0.41494    0.13705    1.000
    Mo15     Mo       0.41410    0.33141    0.06820    1.000
    S16      S        0.33078    0.41477    0.99919    1.000
    S17      S        0.33048    0.41463    0.13686    1.000
    Mo18     Mo       0.66413    0.33137    0.06826    1.000
    S19      S        0.58076    0.41467    0.99926    1.000
    S20      S        0.58084    0.41496    0.13721    1.000
    Mo21     Mo       0.91400    0.33133    0.06819    1.000
    S22      S        0.83072    0.41474    0.99926    1.000
    S23      S        0.83087    0.41482    0.13715    1.000
    Mo24     Mo       0.16420    0.58155    0.06794    1.000
    S25      S        0.08084    0.66500    0.99916    1.000
    S26      S        0.08095    0.66473    0.13712    1.000
    Mo27     Mo       0.41413    0.58163    0.06817    1.000
    S28      S        0.33098    0.66497    0.99907    1.000
    S29      S        0.33040    0.66470    0.13697    1.000
    Mo30     Mo       0.66411    0.58157    0.06808    1.000
    S31      S        0.58078    0.66496    0.99918    1.000
    S32      S        0.58085    0.66471    0.13711    1.000
    Mo33     Mo       0.91416    0.58147    0.06817    1.000
    S34      S        0.83088    0.66496    0.99925    1.000
    S35      S        0.83071    0.66472    0.13718    1.000
    Mo36     Mo       0.16415    0.83153    0.06827    1.000
    S37      S        0.08083    0.91493    0.99936    1.000
    S38      S        0.08084    0.91479    0.13727    1.000
    Mo39     Mo       0.41413    0.83136    0.06828    1.000
    S40      S        0.33085    0.91486    0.99937    1.000
    S41      S        0.33080    0.91465    0.13730    1.000
    Mo42     Mo       0.66404    0.83139    0.06835    1.000
    S43      S        0.58083    0.91478    0.99936    1.000
    S44      S        0.58063    0.91453    0.13742    1.000
    Mo45     Mo       0.91418    0.83152    0.06833    1.000
    S46      S        0.83079    0.91477    0.99941    1.000
    S47      S        0.83072    0.91470    0.13734    1.000
    H48      H        0.24908    0.46882    0.33340    1.000
    N49      N        0.45571    0.50031    0.28197    1.000
    H50      H        0.41099    0.41194    0.28703    1.000
    H51      H        0.54261    0.53990    0.27254    1.000
    C52      C        0.39923    0.56456    0.27665    1.000
    O53      O        0.45346    0.67055    0.26435    1.000
    C54      C        0.26651    0.49600    0.28787    1.000
    H55      H        0.22301    0.41654    0.26104    1.000
    H56      H        0.22968    0.55227    0.27808    1.000
