# CIF file generated by openbabel 3.1.0, see https://openbabel.org
data_I
_chemical_name_common ''
_cell_length_a 13.105
_cell_length_b 13.105
_cell_length_c 23.0122
_cell_angle_alpha 90
_cell_angle_beta 90
_cell_angle_gamma 120
loop_
    _atom_site_label
    _atom_site_type_symbol
    _atom_site_fract_x
    _atom_site_fract_y
    _atom_site_fract_z
    _atom_site_occupancy
    Mo0      Mo       0.16575    0.08368    0.06756    1.000
    S1       S        0.08240    0.16690    0.99851    1.000
    S2       S        0.08233    0.16707    0.13645    1.000
    Mo3      Mo       0.41579    0.08372    0.06760    1.000
    S4       S        0.33239    0.16698    0.99861    1.000
    S5       S        0.33248    0.16723    0.13655    1.000
    Mo6      Mo       0.66567    0.08354    0.06748    1.000
    S7       S        0.58230    0.16693    0.99855    1.000
    S8       S        0.58251    0.16701    0.13653    1.000
    Mo9      Mo       0.91567    0.08362    0.06743    1.000
    S10      S        0.83231    0.16695    0.99850    1.000
    S11      S        0.83235    0.16687    0.13645    1.000
    Mo12     Mo       0.16560    0.33368    0.06734    1.000
    S13      S        0.08220    0.41700    0.99846    1.000
    S14      S        0.08235    0.41706    0.13635    1.000
    Mo15     Mo       0.41562    0.33374    0.06745    1.000
    S16      S        0.33229    0.41699    0.99842    1.000
    S17      S        0.33233    0.41729    0.13615    1.000
    Mo18     Mo       0.66563    0.33363    0.06749    1.000
    S19      S        0.58221    0.41676    0.99845    1.000
    S20      S        0.58231    0.41737    0.13642    1.000
    Mo21     Mo       0.91555    0.33360    0.06745    1.000
    S22      S        0.83230    0.41702    0.99851    1.000
    S23      S        0.83231    0.41706    0.13641    1.000
    Mo24     Mo       0.16594    0.58380    0.06738    1.000
    S25      S        0.08260    0.66710    0.99846    1.000
    S26      S        0.08253    0.66697    0.13645    1.000
    Mo27     Mo       0.41611    0.58399    0.06725    1.000
    S28      S        0.33253    0.66719    0.99837    1.000
    S29      S        0.33278    0.66711    0.13633    1.000
    Mo30     Mo       0.66574    0.58388    0.06714    1.000
    S31      S        0.58245    0.66707    0.99804    1.000
    S32      S        0.58286    0.66724    0.13596    1.000
    Mo33     Mo       0.91580    0.58374    0.06741    1.000
    S34      S        0.83259    0.66711    0.99834    1.000
    S35      S        0.83226    0.66704    0.13632    1.000
    Mo36     Mo       0.16574    0.83370    0.06751    1.000
    S37      S        0.08260    0.91720    0.99852    1.000
    S38      S        0.08229    0.91692    0.13647    1.000
    Mo39     Mo       0.41583    0.83371    0.06744    1.000
    S40      S        0.33236    0.91711    0.99859    1.000
    S41      S        0.33243    0.91691    0.13650    1.000
    Mo42     Mo       0.66572    0.83356    0.06715    1.000
    S43      S        0.58234    0.91714    0.99836    1.000
    S44      S        0.58248    0.91666    0.13641    1.000
    Mo45     Mo       0.91579    0.83373    0.06739    1.000
    S46      S        0.83265    0.91711    0.99834    1.000
    S47      S        0.83213    0.91681    0.13631    1.000
    H48      H        0.24580    0.49016    0.33344    1.000
    N49      N        0.41077    0.44204    0.29067    1.000
    H50      H        0.33938    0.36236    0.29832    1.000
    H51      H        0.48782    0.44547    0.28128    1.000
    C52      C        0.40145    0.54065    0.28064    1.000
    O53      O        0.48714    0.63507    0.26531    1.000
    C54      C        0.27893    0.52469    0.29004    1.000
    H55      H        0.21660    0.46231    0.25838    1.000
    H56      H        0.28365    0.60940    0.28458    1.000
