# CIF file generated by openbabel 3.1.0, see https://openbabel.org
data_I
_chemical_name_common ''
_cell_length_a 13.105
_cell_length_b 13.105
_cell_length_c 23.0122
_cell_angle_alpha 90
_cell_angle_beta 90
_cell_angle_gamma 120
loop_
    _atom_site_label
    _atom_site_type_symbol
    _atom_site_fract_x
    _atom_site_fract_y
    _atom_site_fract_z
    _atom_site_occupancy
    Mo0      Mo       0.16382    0.07770    0.06780    1.000
    S1       S        0.08014    0.16087    0.99886    1.000
    S2       S        0.08034    0.16097    0.13673    1.000
    Mo3      Mo       0.41346    0.07781    0.06791    1.000
    S4       S        0.33026    0.16092    0.99877    1.000
    S5       S        0.33026    0.16105    0.13690    1.000
    Mo6      Mo       0.66347    0.07773    0.06802    1.000
    S7       S        0.58031    0.16117    0.99906    1.000
    S8       S        0.58006    0.16111    0.13699    1.000
    Mo9      Mo       0.91346    0.07765    0.06788    1.000
    S10      S        0.83010    0.16113    0.99904    1.000
    S11      S        0.83018    0.16099    0.13697    1.000
    Mo12     Mo       0.16347    0.32768    0.06769    1.000
    S13      S        0.07999    0.41108    0.99899    1.000
    S14      S        0.08039    0.41088    0.13700    1.000
    Mo15     Mo       0.41348    0.32745    0.06780    1.000
    S16      S        0.33021    0.41102    0.99866    1.000
    S17      S        0.33027    0.41127    0.13611    1.000
    Mo18     Mo       0.66344    0.32778    0.06806    1.000
    S19      S        0.58023    0.41092    0.99894    1.000
    S20      S        0.57970    0.41077    0.13704    1.000
    Mo21     Mo       0.91347    0.32772    0.06806    1.000
    S22      S        0.83017    0.41111    0.99913    1.000
    S23      S        0.83010    0.41109    0.13705    1.000
    Mo24     Mo       0.16354    0.57766    0.06802    1.000
    S25      S        0.08020    0.66099    0.99910    1.000
    S26      S        0.08034    0.66104    0.13700    1.000
    Mo27     Mo       0.41358    0.57784    0.06762    1.000
    S28      S        0.33006    0.66121    0.99894    1.000
    S29      S        0.33033    0.66089    0.13693    1.000
    Mo30     Mo       0.66336    0.57742    0.06796    1.000
    S31      S        0.58045    0.66113    0.99891    1.000
    S32      S        0.57996    0.66079    0.13688    1.000
    Mo33     Mo       0.91356    0.57772    0.06809    1.000
    S34      S        0.83017    0.66090    0.99908    1.000
    S35      S        0.82997    0.66094    0.13697    1.000
    Mo36     Mo       0.16356    0.82768    0.06803    1.000
    S37      S        0.08016    0.91080    0.99897    1.000
    S38      S        0.08034    0.91122    0.13692    1.000
    Mo39     Mo       0.41349    0.82775    0.06801    1.000
    S40      S        0.33016    0.91104    0.99902    1.000
    S41      S        0.33022    0.91121    0.13698    1.000
    Mo42     Mo       0.66352    0.82770    0.06796    1.000
    S43      S        0.58013    0.91105    0.99906    1.000
    S44      S        0.58014    0.91100    0.13695    1.000
    Mo45     Mo       0.91350    0.82767    0.06797    1.000
    S46      S        0.83014    0.91096    0.99898    1.000
    S47      S        0.83020    0.91104    0.13693    1.000
    H48      H        0.39498    0.50016    0.33762    1.000
    N49      N        0.19809    0.29682    0.28134    1.000
    H50      H        0.15286    0.33954    0.28775    1.000
    H51      H        0.15239    0.20994    0.27169    1.000
    C52      C        0.31899    0.35504    0.27745    1.000
    O53      O        0.37277    0.30283    0.26514    1.000
    C54      C        0.38145    0.48678    0.29073    1.000
    H55      H        0.33086    0.52770    0.27616    1.000
    H56      H        0.46731    0.52974    0.26961    1.000
