# CIF file generated by openbabel 3.1.0, see https://openbabel.org
data_I
_chemical_name_common ''
_cell_length_a 13.105
_cell_length_b 13.105
_cell_length_c 23.0122
_cell_angle_alpha 90
_cell_angle_beta 90
_cell_angle_gamma 120
loop_
    _atom_site_label
    _atom_site_type_symbol
    _atom_site_fract_x
    _atom_site_fract_y
    _atom_site_fract_z
    _atom_site_occupancy
    Mo0      Mo       0.16944    0.08849    0.06833    1.000
    S1       S        0.08611    0.17158    0.99924    1.000
    S2       S        0.08638    0.17196    0.13741    1.000
    Mo3      Mo       0.41952    0.08842    0.06831    1.000
    S4       S        0.33604    0.17138    0.99923    1.000
    S5       S        0.33621    0.17192    0.13727    1.000
    Mo6      Mo       0.66965    0.08841    0.06829    1.000
    S7       S        0.58625    0.17175    0.99938    1.000
    S8       S        0.58624    0.17165    0.13728    1.000
    Mo9      Mo       0.91980    0.08846    0.06838    1.000
    S10      S        0.83639    0.17178    0.99942    1.000
    S11      S        0.83624    0.17160    0.13737    1.000
    Mo12     Mo       0.16939    0.33817    0.06818    1.000
    S13      S        0.08592    0.42155    0.99932    1.000
    S14      S        0.08634    0.42158    0.13731    1.000
    Mo15     Mo       0.41966    0.33823    0.06795    1.000
    S16      S        0.33614    0.42153    0.99891    1.000
    S17      S        0.33649    0.42178    0.13634    1.000
    Mo18     Mo       0.66962    0.33834    0.06837    1.000
    S19      S        0.58658    0.42173    0.99925    1.000
    S20      S        0.58594    0.42147    0.13726    1.000
    Mo21     Mo       0.91957    0.33834    0.06843    1.000
    S22      S        0.83632    0.42169    0.99946    1.000
    S23      S        0.83622    0.42162    0.13743    1.000
    Mo24     Mo       0.16954    0.58823    0.06821    1.000
    S25      S        0.08616    0.67165    0.99942    1.000
    S26      S        0.08638    0.67159    0.13734    1.000
    Mo27     Mo       0.41968    0.58847    0.06780    1.000
    S28      S        0.33610    0.67182    0.99905    1.000
    S29      S        0.33661    0.67198    0.13688    1.000
    Mo30     Mo       0.66953    0.58826    0.06833    1.000
    S31      S        0.58665    0.67192    0.99922    1.000
    S32      S        0.58587    0.67150    0.13720    1.000
    Mo33     Mo       0.91951    0.58829    0.06843    1.000
    S34      S        0.83622    0.67165    0.99943    1.000
    S35      S        0.83610    0.67163    0.13736    1.000
    Mo36     Mo       0.16955    0.83839    0.06838    1.000
    S37      S        0.08617    0.92166    0.99944    1.000
    S38      S        0.08625    0.92182    0.13734    1.000
    Mo39     Mo       0.41964    0.83859    0.06804    1.000
    S40      S        0.33603    0.92186    0.99930    1.000
    S41      S        0.33630    0.92174    0.13724    1.000
    Mo42     Mo       0.66968    0.83844    0.06832    1.000
    S43      S        0.58651    0.92183    0.99925    1.000
    S44      S        0.58617    0.92172    0.13718    1.000
    Mo45     Mo       0.91955    0.83831    0.06841    1.000
    S46      S        0.83637    0.92171    0.99944    1.000
    S47      S        0.83636    0.92176    0.13737    1.000
    H48      H        0.41742    0.45917    0.33466    1.000
    N49      N        0.26996    0.53669    0.27994    1.000
    H50      H        0.34086    0.61728    0.28626    1.000
    H51      H        0.19108    0.53059    0.27240    1.000
    C52      C        0.27855    0.43648    0.27651    1.000
    O53      O        0.19216    0.33916    0.26563    1.000
    C54      C        0.40132    0.45429    0.28784    1.000
    H55      H        0.47047    0.53550    0.26809    1.000
    H56      H        0.40549    0.37927    0.27038    1.000
