# CIF file generated by openbabel 3.1.0, see https://openbabel.org
data_I
_chemical_name_common ''
_cell_length_a 13.105
_cell_length_b 13.105
_cell_length_c 23.0122
_cell_angle_alpha 90
_cell_angle_beta 90
_cell_angle_gamma 120
loop_
    _atom_site_label
    _atom_site_type_symbol
    _atom_site_fract_x
    _atom_site_fract_y
    _atom_site_fract_z
    _atom_site_occupancy
    Mo0      Mo       0.16331    0.08134    0.06782    1.000
    S1       S        0.07967    0.16431    0.99880    1.000
    S2       S        0.08001    0.16490    0.13675    1.000
    Mo3      Mo       0.41343    0.08125    0.06781    1.000
    S4       S        0.32982    0.16417    0.99868    1.000
    S5       S        0.33021    0.16501    0.13663    1.000
    Mo6      Mo       0.66343    0.08135    0.06794    1.000
    S7       S        0.58021    0.16467    0.99893    1.000
    S8       S        0.58010    0.16479    0.13680    1.000
    Mo9      Mo       0.91324    0.08121    0.06791    1.000
    S10      S        0.82998    0.16458    0.99894    1.000
    S11      S        0.83018    0.16484    0.13686    1.000
    Mo12     Mo       0.16303    0.33127    0.06754    1.000
    S13      S        0.07994    0.41490    0.99874    1.000
    S14      S        0.08002    0.41441    0.13686    1.000
    Mo15     Mo       0.41342    0.33122    0.06726    1.000
    S16      S        0.32986    0.41472    0.99840    1.000
    S17      S        0.32995    0.41406    0.13578    1.000
    Mo18     Mo       0.66350    0.33146    0.06783    1.000
    S19      S        0.58057    0.41505    0.99873    1.000
    S20      S        0.57956    0.41441    0.13672    1.000
    Mo21     Mo       0.91355    0.33149    0.06781    1.000
    S22      S        0.83022    0.41494    0.99895    1.000
    S23      S        0.83013    0.41464    0.13688    1.000
    Mo24     Mo       0.16345    0.58116    0.06801    1.000
    S25      S        0.08013    0.66477    0.99911    1.000
    S26      S        0.08028    0.66463    0.13703    1.000
    Mo27     Mo       0.41319    0.58127    0.06771    1.000
    S28      S        0.32989    0.66464    0.99888    1.000
    S29      S        0.33007    0.66440    0.13698    1.000
    Mo30     Mo       0.66335    0.58133    0.06797    1.000
    S31      S        0.58018    0.66475    0.99900    1.000
    S32      S        0.57958    0.66431    0.13697    1.000
    Mo33     Mo       0.91351    0.58141    0.06805    1.000
    S34      S        0.83027    0.66483    0.99912    1.000
    S35      S        0.83003    0.66463    0.13701    1.000
    Mo36     Mo       0.16353    0.83136    0.06804    1.000
    S37      S        0.07993    0.91439    0.99906    1.000
    S38      S        0.08026    0.91490    0.13696    1.000
    Mo39     Mo       0.41332    0.83109    0.06792    1.000
    S40      S        0.33010    0.91450    0.99898    1.000
    S41      S        0.33031    0.91472    0.13691    1.000
    Mo42     Mo       0.66337    0.83125    0.06805    1.000
    S43      S        0.58015    0.91460    0.99905    1.000
    S44      S        0.58000    0.91464    0.13695    1.000
    Mo45     Mo       0.91341    0.83138    0.06808    1.000
    S46      S        0.82993    0.91447    0.99907    1.000
    S47      S        0.83004    0.91471    0.13700    1.000
    H48      H        0.24969    0.26429    0.33361    1.000
    N49      N        0.41788    0.47196    0.28549    1.000
    H50      H        0.46072    0.42814    0.29539    1.000
    H51      H        0.46601    0.55853    0.27549    1.000
    C52      C        0.29787    0.41509    0.27755    1.000
    O53      O        0.24706    0.46832    0.26163    1.000
    C54      C        0.23343    0.28270    0.28930    1.000
    H55      H        0.26391    0.23855    0.25938    1.000
    H56      H        0.13939    0.24737    0.28307    1.000
