# CIF file generated by openbabel 3.1.0, see https://openbabel.org
data_I
_chemical_name_common ''
_cell_length_a 13.105
_cell_length_b 13.105
_cell_length_c 23.0122
_cell_angle_alpha 90
_cell_angle_beta 90
_cell_angle_gamma 120
loop_
    _atom_site_label
    _atom_site_type_symbol
    _atom_site_fract_x
    _atom_site_fract_y
    _atom_site_fract_z
    _atom_site_occupancy
    Mo0      Mo       0.17028    0.08720    0.06851    1.000
    S1       S        0.08696    0.17024    0.99937    1.000
    S2       S        0.08709    0.17055    0.13757    1.000
    Mo3      Mo       0.42017    0.08708    0.06844    1.000
    S4       S        0.33677    0.17018    0.99936    1.000
    S5       S        0.33701    0.17070    0.13743    1.000
    Mo6      Mo       0.67031    0.08704    0.06848    1.000
    S7       S        0.58691    0.17032    0.99952    1.000
    S8       S        0.58688    0.17034    0.13742    1.000
    Mo9      Mo       0.92056    0.08714    0.06845    1.000
    S10      S        0.83693    0.17031    0.99950    1.000
    S11      S        0.83708    0.17038    0.13743    1.000
    Mo12     Mo       0.17021    0.33677    0.06831    1.000
    S13      S        0.08684    0.42032    0.99944    1.000
    S14      S        0.08672    0.41995    0.13728    1.000
    Mo15     Mo       0.42034    0.33696    0.06813    1.000
    S16      S        0.33689    0.42026    0.99908    1.000
    S17      S        0.33724    0.42042    0.13657    1.000
    Mo18     Mo       0.67024    0.33700    0.06848    1.000
    S19      S        0.58721    0.42045    0.99938    1.000
    S20      S        0.58665    0.42024    0.13740    1.000
    Mo21     Mo       0.92017    0.33693    0.06840    1.000
    S22      S        0.83692    0.42037    0.99953    1.000
    S23      S        0.83688    0.42016    0.13748    1.000
    Mo24     Mo       0.17025    0.58692    0.06848    1.000
    S25      S        0.08687    0.67026    0.99963    1.000
    S26      S        0.08694    0.67026    0.13754    1.000
    Mo27     Mo       0.42039    0.58708    0.06802    1.000
    S28      S        0.33680    0.67051    0.99936    1.000
    S29      S        0.33723    0.67040    0.13727    1.000
    Mo30     Mo       0.67032    0.58698    0.06844    1.000
    S31      S        0.58737    0.67057    0.99935    1.000
    S32      S        0.58677    0.67027    0.13727    1.000
    Mo33     Mo       0.92023    0.58692    0.06857    1.000
    S34      S        0.83710    0.67036    0.99958    1.000
    S35      S        0.83689    0.67033    0.13749    1.000
    Mo36     Mo       0.17027    0.83700    0.06856    1.000
    S37      S        0.08695    0.92031    0.99960    1.000
    S38      S        0.08704    0.92052    0.13751    1.000
    Mo39     Mo       0.42033    0.83712    0.06837    1.000
    S40      S        0.33676    0.92030    0.99952    1.000
    S41      S        0.33705    0.92043    0.13743    1.000
    Mo42     Mo       0.67039    0.83710    0.06841    1.000
    S43      S        0.58706    0.92047    0.99948    1.000
    S44      S        0.58694    0.92030    0.13739    1.000
    Mo45     Mo       0.92034    0.83702    0.06855    1.000
    S46      S        0.83714    0.92037    0.99955    1.000
    S47      S        0.83700    0.92045    0.13745    1.000
    H48      H        0.43449    0.50879    0.33444    1.000
    N49      N        0.23201    0.50163    0.27818    1.000
    H50      H        0.27936    0.59051    0.27913    1.000
    H51      H        0.14480    0.46276    0.26953    1.000
    C52      C        0.28426    0.43297    0.27745    1.000
    O53      O        0.22608    0.32523    0.27014    1.000
    C54      C        0.41716    0.49850    0.28772    1.000
    H55      H        0.46102    0.58606    0.26793    1.000
    H56      H        0.45383    0.44666    0.26995    1.000
