# CIF file generated by openbabel 3.1.0, see https://openbabel.org
data_I
_chemical_name_common ''
_cell_length_a 13.105
_cell_length_b 13.105
_cell_length_c 23.0122
_cell_angle_alpha 90
_cell_angle_beta 90
_cell_angle_gamma 120
loop_
    _atom_site_label
    _atom_site_type_symbol
    _atom_site_fract_x
    _atom_site_fract_y
    _atom_site_fract_z
    _atom_site_occupancy
    Mo0      Mo       0.16457    0.08230    0.06811    1.000
    S1       S        0.08108    0.16539    0.99905    1.000
    S2       S        0.08131    0.16586    0.13698    1.000
    Mo3      Mo       0.41470    0.08239    0.06829    1.000
    S4       S        0.33140    0.16566    0.99924    1.000
    S5       S        0.33107    0.16564    0.13707    1.000
    Mo6      Mo       0.66472    0.08240    0.06830    1.000
    S7       S        0.58135    0.16572    0.99935    1.000
    S8       S        0.58140    0.16594    0.13728    1.000
    Mo9      Mo       0.91454    0.08226    0.06815    1.000
    S10      S        0.83123    0.16567    0.99926    1.000
    S11      S        0.83149    0.16581    0.13714    1.000
    Mo12     Mo       0.16462    0.33238    0.06780    1.000
    S13      S        0.08133    0.41599    0.99910    1.000
    S14      S        0.08158    0.41564    0.13706    1.000
    Mo15     Mo       0.41464    0.33251    0.06817    1.000
    S16      S        0.33155    0.41590    0.99898    1.000
    S17      S        0.33069    0.41561    0.13671    1.000
    Mo18     Mo       0.66469    0.33255    0.06819    1.000
    S19      S        0.58148    0.41599    0.99927    1.000
    S20      S        0.58140    0.41587    0.13716    1.000
    Mo21     Mo       0.91473    0.33244    0.06816    1.000
    S22      S        0.83143    0.41597    0.99931    1.000
    S23      S        0.83135    0.41570    0.13722    1.000
    Mo24     Mo       0.16486    0.58250    0.06823    1.000
    S25      S        0.08144    0.66589    0.99938    1.000
    S26      S        0.08155    0.66571    0.13728    1.000
    Mo27     Mo       0.41480    0.58240    0.06822    1.000
    S28      S        0.33158    0.66592    0.99932    1.000
    S29      S        0.33150    0.66556    0.13730    1.000
    Mo30     Mo       0.66466    0.58252    0.06840    1.000
    S31      S        0.58149    0.66575    0.99931    1.000
    S32      S        0.58116    0.66555    0.13744    1.000
    Mo33     Mo       0.91480    0.58250    0.06836    1.000
    S34      S        0.83140    0.66576    0.99945    1.000
    S35      S        0.83134    0.66572    0.13738    1.000
    Mo36     Mo       0.16479    0.83242    0.06838    1.000
    S37      S        0.08133    0.91552    0.99934    1.000
    S38      S        0.08151    0.91593    0.13728    1.000
    Mo39     Mo       0.41482    0.83240    0.06839    1.000
    S40      S        0.33145    0.91571    0.99943    1.000
    S41      S        0.33151    0.91582    0.13734    1.000
    Mo42     Mo       0.66461    0.83217    0.06834    1.000
    S43      S        0.58138    0.91568    0.99940    1.000
    S44      S        0.58153    0.91574    0.13731    1.000
    Mo45     Mo       0.91473    0.83237    0.06838    1.000
    S46      S        0.83126    0.91545    0.99935    1.000
    S47      S        0.83134    0.91571    0.13727    1.000
    H48      H        0.25161    0.26152    0.33282    1.000
    N49      N        0.45764    0.29242    0.28168    1.000
    H50      H        0.41191    0.20411    0.28689    1.000
    H51      H        0.54474    0.33131    0.27286    1.000
    C52      C        0.40299    0.35844    0.27684    1.000
    O53      O        0.45883    0.46466    0.26505    1.000
    C54      C        0.27024    0.29133    0.28769    1.000
    H55      H        0.22597    0.21353    0.25977    1.000
    H56      H        0.23497    0.34932    0.27897    1.000
