# CIF file generated by openbabel 3.1.0, see https://openbabel.org
data_I
_chemical_name_common ''
_cell_length_a 13.105
_cell_length_b 13.105
_cell_length_c 23.0122
_cell_angle_alpha 90
_cell_angle_beta 90
_cell_angle_gamma 120
loop_
    _atom_site_label
    _atom_site_type_symbol
    _atom_site_fract_x
    _atom_site_fract_y
    _atom_site_fract_z
    _atom_site_occupancy
    Mo0      Mo       0.16315    0.07870    0.06752    1.000
    S1       S        0.07973    0.16199    0.99852    1.000
    S2       S        0.07999    0.16220    0.13642    1.000
    Mo3      Mo       0.41337    0.07891    0.06774    1.000
    S4       S        0.32996    0.16208    0.99864    1.000
    S5       S        0.32967    0.16202    0.13653    1.000
    Mo6      Mo       0.66334    0.07901    0.06796    1.000
    S7       S        0.58023    0.16252    0.99896    1.000
    S8       S        0.57992    0.16238    0.13686    1.000
    Mo9      Mo       0.91318    0.07888    0.06767    1.000
    S10      S        0.82982    0.16240    0.99888    1.000
    S11      S        0.83016    0.16235    0.13679    1.000
    Mo12     Mo       0.16324    0.32885    0.06738    1.000
    S13      S        0.07987    0.41261    0.99881    1.000
    S14      S        0.08017    0.41204    0.13678    1.000
    Mo15     Mo       0.41310    0.32880    0.06758    1.000
    S16      S        0.33011    0.41242    0.99851    1.000
    S17      S        0.32953    0.41190    0.13609    1.000
    Mo18     Mo       0.66339    0.32912    0.06797    1.000
    S19      S        0.58029    0.41266    0.99903    1.000
    S20      S        0.57946    0.41208    0.13694    1.000
    Mo21     Mo       0.91334    0.32906    0.06787    1.000
    S22      S        0.83004    0.41261    0.99903    1.000
    S23      S        0.83013    0.41242    0.13694    1.000
    Mo24     Mo       0.16351    0.57901    0.06798    1.000
    S25      S        0.08011    0.66234    0.99905    1.000
    S26      S        0.08028    0.66246    0.13695    1.000
    Mo27     Mo       0.41328    0.57889    0.06786    1.000
    S28      S        0.33004    0.66234    0.99901    1.000
    S29      S        0.33005    0.66199    0.13707    1.000
    Mo30     Mo       0.66316    0.57910    0.06813    1.000
    S31      S        0.58001    0.66231    0.99903    1.000
    S32      S        0.57957    0.66213    0.13714    1.000
    Mo33     Mo       0.91343    0.57914    0.06805    1.000
    S34      S        0.82980    0.66220    0.99912    1.000
    S35      S        0.82996    0.66245    0.13701    1.000
    Mo36     Mo       0.16344    0.82898    0.06790    1.000
    S37      S        0.07968    0.91173    0.99883    1.000
    S38      S        0.08002    0.91242    0.13675    1.000
    Mo39     Mo       0.41329    0.82879    0.06805    1.000
    S40      S        0.33017    0.91213    0.99894    1.000
    S41      S        0.33008    0.91243    0.13687    1.000
    Mo42     Mo       0.66317    0.82879    0.06804    1.000
    S43      S        0.57992    0.91220    0.99912    1.000
    S44      S        0.57999    0.91231    0.13699    1.000
    Mo45     Mo       0.91318    0.82893    0.06792    1.000
    S46      S        0.82959    0.91200    0.99891    1.000
    S47      S        0.83004    0.91247    0.13685    1.000
    H48      H        0.17771    0.29247    0.33885    1.000
    N49      N        0.38188    0.31264    0.27783    1.000
    H50      H        0.33748    0.22372    0.27825    1.000
    H51      H        0.46948    0.35495    0.26979    1.000
    C52      C        0.32600    0.37770    0.28099    1.000
    O53      O        0.38061    0.48605    0.27595    1.000
    C54      C        0.19343    0.30700    0.29211    1.000
    H55      H        0.15164    0.22115    0.27056    1.000
    H56      H        0.15354    0.35776    0.27688    1.000
