# CIF file generated by openbabel 3.1.0, see https://openbabel.org
data_I
_chemical_name_common ''
_cell_length_a 13.105
_cell_length_b 13.105
_cell_length_c 23.0122
_cell_angle_alpha 90
_cell_angle_beta 90
_cell_angle_gamma 120
loop_
    _atom_site_label
    _atom_site_type_symbol
    _atom_site_fract_x
    _atom_site_fract_y
    _atom_site_fract_z
    _atom_site_occupancy
    Mo0      Mo       0.16763    0.08569    0.06762    1.000
    S1       S        0.08402    0.16853    0.99848    1.000
    S2       S        0.08453    0.16947    0.13644    1.000
    Mo3      Mo       0.41755    0.08570    0.06773    1.000
    S4       S        0.33428    0.16889    0.99867    1.000
    S5       S        0.33436    0.16942    0.13665    1.000
    Mo6      Mo       0.66752    0.08567    0.06771    1.000
    S7       S        0.58420    0.16900    0.99878    1.000
    S8       S        0.58419    0.16906    0.13671    1.000
    Mo9      Mo       0.91750    0.08559    0.06760    1.000
    S10      S        0.83406    0.16887    0.99869    1.000
    S11      S        0.83432    0.16907    0.13657    1.000
    Mo12     Mo       0.16753    0.33567    0.06701    1.000
    S13      S        0.08397    0.41915    0.99839    1.000
    S14      S        0.08458    0.41893    0.13639    1.000
    Mo15     Mo       0.41783    0.33582    0.06744    1.000
    S16      S        0.33453    0.41907    0.99813    1.000
    S17      S        0.33383    0.41886    0.13556    1.000
    Mo18     Mo       0.66744    0.33575    0.06769    1.000
    S19      S        0.58447    0.41909    0.99860    1.000
    S20      S        0.58400    0.41888    0.13675    1.000
    Mo21     Mo       0.91752    0.33569    0.06756    1.000
    S22      S        0.83409    0.41911    0.99874    1.000
    S23      S        0.83417    0.41891    0.13666    1.000
    Mo24     Mo       0.16752    0.58570    0.06746    1.000
    S25      S        0.08404    0.66908    0.99871    1.000
    S26      S        0.08427    0.66887    0.13662    1.000
    Mo27     Mo       0.41768    0.58579    0.06724    1.000
    S28      S        0.33423    0.66932    0.99847    1.000
    S29      S        0.33424    0.66897    0.13632    1.000
    Mo30     Mo       0.66733    0.58547    0.06776    1.000
    S31      S        0.58447    0.66901    0.99852    1.000
    S32      S        0.58385    0.66881    0.13660    1.000
    Mo33     Mo       0.91747    0.58566    0.06775    1.000
    S34      S        0.83414    0.66897    0.99884    1.000
    S35      S        0.83397    0.66885    0.13675    1.000
    Mo36     Mo       0.16753    0.83567    0.06772    1.000
    S37      S        0.08415    0.91888    0.99877    1.000
    S38      S        0.08427    0.91909    0.13668    1.000
    Mo39     Mo       0.41757    0.83584    0.06757    1.000
    S40      S        0.33412    0.91910    0.99871    1.000
    S41      S        0.33424    0.91900    0.13665    1.000
    Mo42     Mo       0.66743    0.83549    0.06758    1.000
    S43      S        0.58426    0.91914    0.99868    1.000
    S44      S        0.58414    0.91882    0.13662    1.000
    Mo45     Mo       0.91751    0.83560    0.06776    1.000
    S46      S        0.83422    0.91883    0.99872    1.000
    S47      S        0.83404    0.91891    0.13663    1.000
    H48      H        0.36181    0.59308    0.33840    1.000
    N49      N        0.26783    0.37197    0.28525    1.000
    H50      H        0.19374    0.37373    0.29530    1.000
    H51      H        0.26094    0.29359    0.27540    1.000
    C52      C        0.37489    0.47310    0.27823    1.000
    O53      O        0.46334    0.47023    0.26196    1.000
    C54      C        0.37595    0.58763    0.29196    1.000
    H55      H        0.30632    0.59290    0.26832    1.000
    H56      H        0.46104    0.66166    0.27967    1.000
