# CIF file generated by openbabel 3.1.0, see https://openbabel.org
data_I
_chemical_name_common ''
_cell_length_a 13.105
_cell_length_b 13.105
_cell_length_c 23.0122
_cell_angle_alpha 90
_cell_angle_beta 90
_cell_angle_gamma 120
loop_
    _atom_site_label
    _atom_site_type_symbol
    _atom_site_fract_x
    _atom_site_fract_y
    _atom_site_fract_z
    _atom_site_occupancy
    Mo0      Mo       0.16475    0.08408    0.06804    1.000
    S1       S        0.08135    0.16703    0.99877    1.000
    S2       S        0.08083    0.16697    0.13673    1.000
    Mo3      Mo       0.41448    0.08380    0.06792    1.000
    S4       S        0.33123    0.16700    0.99888    1.000
    S5       S        0.33144    0.16710    0.13693    1.000
    Mo6      Mo       0.66461    0.08389    0.06793    1.000
    S7       S        0.58126    0.16724    0.99903    1.000
    S8       S        0.58115    0.16705    0.13696    1.000
    Mo9      Mo       0.91468    0.08384    0.06770    1.000
    S10      S        0.83128    0.16734    0.99891    1.000
    S11      S        0.83142    0.16712    0.13684    1.000
    Mo12     Mo       0.16443    0.33349    0.06779    1.000
    S13      S        0.08122    0.41720    0.99898    1.000
    S14      S        0.08132    0.41691    0.13690    1.000
    Mo15     Mo       0.41464    0.33351    0.06780    1.000
    S16      S        0.33127    0.41694    0.99876    1.000
    S17      S        0.33144    0.41714    0.13639    1.000
    Mo18     Mo       0.66464    0.33382    0.06806    1.000
    S19      S        0.58146    0.41713    0.99899    1.000
    S20      S        0.58111    0.41701    0.13697    1.000
    Mo21     Mo       0.91458    0.33387    0.06796    1.000
    S22      S        0.83122    0.41722    0.99910    1.000
    S23      S        0.83128    0.41706    0.13705    1.000
    Mo24     Mo       0.16467    0.58378    0.06800    1.000
    S25      S        0.08121    0.66717    0.99916    1.000
    S26      S        0.08130    0.66706    0.13704    1.000
    Mo27     Mo       0.41468    0.58383    0.06772    1.000
    S28      S        0.33123    0.66724    0.99897    1.000
    S29      S        0.33141    0.66700    0.13691    1.000
    Mo30     Mo       0.66455    0.58377    0.06798    1.000
    S31      S        0.58146    0.66723    0.99895    1.000
    S32      S        0.58113    0.66706    0.13690    1.000
    Mo33     Mo       0.91457    0.58376    0.06811    1.000
    S34      S        0.83140    0.66719    0.99913    1.000
    S35      S        0.83119    0.66722    0.13700    1.000
    Mo36     Mo       0.16447    0.83386    0.06812    1.000
    S37      S        0.08132    0.91726    0.99912    1.000
    S38      S        0.08134    0.91754    0.13709    1.000
    Mo39     Mo       0.41449    0.83383    0.06800    1.000
    S40      S        0.33100    0.91700    0.99908    1.000
    S41      S        0.33115    0.91720    0.13701    1.000
    Mo42     Mo       0.66460    0.83385    0.06796    1.000
    S43      S        0.58116    0.91716    0.99903    1.000
    S44      S        0.58126    0.91727    0.13691    1.000
    Mo45     Mo       0.91467    0.83397    0.06805    1.000
    S46      S        0.83115    0.91694    0.99895    1.000
    S47      S        0.83135    0.91742    0.13690    1.000
    H48      H        0.40512    0.39727    0.33893    1.000
    N49      N        0.20234    0.36994    0.28148    1.000
    H50      H        0.24303    0.45773    0.28835    1.000
    H51      H        0.11709    0.32865    0.26869    1.000
    C52      C        0.26418    0.31094    0.27648    1.000
    O53      O        0.21578    0.20650    0.26140    1.000
    C54      C        0.39482    0.38234    0.29202    1.000
    H55      H        0.43771    0.46825    0.27048    1.000
    H56      H        0.43763    0.33309    0.27895    1.000
