# CIF file generated by openbabel 3.1.0, see https://openbabel.org
data_I
_chemical_name_common ''
_cell_length_a 13.105
_cell_length_b 13.105
_cell_length_c 23.0122
_cell_angle_alpha 90
_cell_angle_beta 90
_cell_angle_gamma 120
loop_
    _atom_site_label
    _atom_site_type_symbol
    _atom_site_fract_x
    _atom_site_fract_y
    _atom_site_fract_z
    _atom_site_occupancy
    Mo0      Mo       0.16566    0.08277    0.06830    1.000
    S1       S        0.08216    0.16576    0.99928    1.000
    S2       S        0.08254    0.16638    0.13727    1.000
    Mo3      Mo       0.41560    0.08279    0.06824    1.000
    S4       S        0.33226    0.16614    0.99928    1.000
    S5       S        0.33246    0.16624    0.13717    1.000
    Mo6      Mo       0.66559    0.08271    0.06829    1.000
    S7       S        0.58234    0.16620    0.99937    1.000
    S8       S        0.58224    0.16607    0.13724    1.000
    Mo9      Mo       0.91556    0.08266    0.06835    1.000
    S10      S        0.83229    0.16595    0.99937    1.000
    S11      S        0.83226    0.16609    0.13725    1.000
    Mo12     Mo       0.16582    0.33276    0.06791    1.000
    S13      S        0.08251    0.41625    0.99919    1.000
    S14      S        0.08272    0.41604    0.13712    1.000
    Mo15     Mo       0.41597    0.33291    0.06814    1.000
    S16      S        0.33277    0.41628    0.99896    1.000
    S17      S        0.33237    0.41627    0.13643    1.000
    Mo18     Mo       0.66587    0.33287    0.06834    1.000
    S19      S        0.58285    0.41637    0.99936    1.000
    S20      S        0.58243    0.41615    0.13741    1.000
    Mo21     Mo       0.91585    0.33273    0.06824    1.000
    S22      S        0.83253    0.41603    0.99936    1.000
    S23      S        0.83264    0.41606    0.13729    1.000
    Mo24     Mo       0.16593    0.58283    0.06825    1.000
    S25      S        0.08239    0.66617    0.99938    1.000
    S26      S        0.08253    0.66606    0.13725    1.000
    Mo27     Mo       0.41600    0.58302    0.06811    1.000
    S28      S        0.33247    0.66629    0.99926    1.000
    S29      S        0.33252    0.66595    0.13731    1.000
    Mo30     Mo       0.66573    0.58288    0.06843    1.000
    S31      S        0.58265    0.66612    0.99925    1.000
    S32      S        0.58217    0.66601    0.13739    1.000
    Mo33     Mo       0.91579    0.58273    0.06833    1.000
    S34      S        0.83250    0.66617    0.99943    1.000
    S35      S        0.83246    0.66614    0.13731    1.000
    Mo36     Mo       0.16571    0.83282    0.06833    1.000
    S37      S        0.08227    0.91602    0.99939    1.000
    S38      S        0.08231    0.91614    0.13728    1.000
    Mo39     Mo       0.41556    0.83275    0.06833    1.000
    S40      S        0.33232    0.91620    0.99933    1.000
    S41      S        0.33230    0.91623    0.13728    1.000
    Mo42     Mo       0.66550    0.83254    0.06829    1.000
    S43      S        0.58215    0.91603    0.99936    1.000
    S44      S        0.58224    0.91601    0.13725    1.000
    Mo45     Mo       0.91563    0.83279    0.06834    1.000
    S46      S        0.83221    0.91608    0.99937    1.000
    S47      S        0.83210    0.91592    0.13730    1.000
    H48      H        0.20298    0.37872    0.33289    1.000
    N49      N        0.34696    0.29866    0.28013    1.000
    H50      H        0.27089    0.22075    0.28156    1.000
    H51      H        0.42271    0.29814    0.27258    1.000
    C52      C        0.34912    0.40473    0.27891    1.000
    O53      O        0.44182    0.49903    0.27205    1.000
    C54      C        0.22971    0.39680    0.28730    1.000
    H55      H        0.16123    0.32623    0.26098    1.000
    H56      H        0.23739    0.48061    0.27513    1.000
