# CIF file generated by openbabel 3.1.0, see https://openbabel.org
data_I
_chemical_name_common ''
_cell_length_a 13.105
_cell_length_b 13.105
_cell_length_c 23.0122
_cell_angle_alpha 90
_cell_angle_beta 90
_cell_angle_gamma 120
loop_
    _atom_site_label
    _atom_site_type_symbol
    _atom_site_fract_x
    _atom_site_fract_y
    _atom_site_fract_z
    _atom_site_occupancy
    H0       H        0.36966    0.36124    0.46933    1.000
    N1       N        0.59417    0.51707    0.42948    1.000
    H2       H        0.59045    0.43835    0.42898    1.000
    H3       H        0.67389    0.59109    0.42942    1.000
    C4       C        0.49445    0.52719    0.42936    1.000
    O5       O        0.49994    0.62385    0.42945    1.000
    C6       C        0.37826    0.41017    0.42944    1.000
    H7       H        0.37398    0.35523    0.39275    1.000
    H8       H        0.30573    0.42777    0.42669    1.000
