# CIF file generated by openbabel 3.1.0, see https://openbabel.org
data_I
_chemical_name_common ''
_cell_length_a 13.105
_cell_length_b 13.105
_cell_length_c 23.0122
_cell_angle_alpha 90
_cell_angle_beta 90
_cell_angle_gamma 120
loop_
    _atom_site_label
    _atom_site_type_symbol
    _atom_site_fract_x
    _atom_site_fract_y
    _atom_site_fract_z
    _atom_site_occupancy
    Mo0      Mo       0.16642    0.08387    0.06992    1.000
    S1       S        0.08292    0.16707    0.00096    1.000
    S2       S        0.08310    0.16717    0.13893    1.000
    Mo3      Mo       0.41644    0.08385    0.06996    1.000
    S4       S        0.33308    0.16707    0.00094    1.000
    S5       S        0.33306    0.16717    0.13891    1.000
    Mo6      Mo       0.66645    0.08386    0.07000    1.000
    S7       S        0.58318    0.16721    0.00103    1.000
    S8       S        0.58307    0.16711    0.13898    1.000
    Mo9      Mo       0.91640    0.08383    0.07001    1.000
    S10      S        0.83309    0.16722    0.00104    1.000
    S11      S        0.83310    0.16721    0.13899    1.000
    Mo12     Mo       0.16623    0.33371    0.06989    1.000
    S13      S        0.08297    0.41710    0.00094    1.000
    S14      S        0.08319    0.41729    0.13890    1.000
    Mo15     Mo       0.41639    0.33369    0.06986    1.000
    S16      S        0.33294    0.41694    0.00088    1.000
    S17      S        0.33297    0.41697    0.13872    1.000
    Mo18     Mo       0.66648    0.33379    0.07004    1.000
    S19      S        0.58317    0.41705    0.00099    1.000
    S20      S        0.58301    0.41722    0.13893    1.000
    Mo21     Mo       0.91642    0.33387    0.07000    1.000
    S22      S        0.83306    0.41712    0.00103    1.000
    S23      S        0.83318    0.41725    0.13898    1.000
    Mo24     Mo       0.16638    0.58384    0.06982    1.000
    S25      S        0.08307    0.66719    0.00091    1.000
    S26      S        0.08324    0.66724    0.13887    1.000
    Mo27     Mo       0.41639    0.58379    0.06978    1.000
    S28      S        0.33310    0.66723    0.00082    1.000
    S29      S        0.33304    0.66728    0.13867    1.000
    Mo30     Mo       0.66662    0.58381    0.06984    1.000
    S31      S        0.58330    0.66725    0.00090    1.000
    S32      S        0.58324    0.66713    0.13871    1.000
    Mo33     Mo       0.91649    0.58387    0.06995    1.000
    S34      S        0.83325    0.66719    0.00092    1.000
    S35      S        0.83314    0.66721    0.13890    1.000
    Mo36     Mo       0.16647    0.83386    0.06988    1.000
    S37      S        0.08309    0.91721    0.00093    1.000
    S38      S        0.08312    0.91718    0.13886    1.000
    Mo39     Mo       0.41650    0.83395    0.06982    1.000
    S40      S        0.33316    0.91729    0.00092    1.000
    S41      S        0.33310    0.91710    0.13887    1.000
    Mo42     Mo       0.66654    0.83398    0.06992    1.000
    S43      S        0.58325    0.91729    0.00095    1.000
    S44      S        0.58303    0.91709    0.13891    1.000
    Mo45     Mo       0.91642    0.83383    0.06992    1.000
    S46      S        0.83313    0.91726    0.00098    1.000
    S47      S        0.83308    0.91711    0.13894    1.000
    H48      H        0.46967    0.66796    0.26062    1.000
    C49      C        0.41856    0.58351    0.28311    1.000
    O50      O        0.48318    0.52037    0.28680    1.000
    H51      H        0.40276    0.59972    0.32770    1.000
    H52      H        0.33386    0.53119    0.26096    1.000
    H53      H        0.50287    0.50796    0.24768    1.000
