# CIF file generated by openbabel 3.1.0, see https://openbabel.org
data_I
_chemical_name_common ''
_cell_length_a 13.105
_cell_length_b 13.105
_cell_length_c 23.0122
_cell_angle_alpha 90
_cell_angle_beta 90
_cell_angle_gamma 120
loop_
    _atom_site_label
    _atom_site_type_symbol
    _atom_site_fract_x
    _atom_site_fract_y
    _atom_site_fract_z
    _atom_site_occupancy
    Mo0      Mo       0.16631    0.08319    0.06906    1.000
    S1       S        0.08285    0.16645    0.00014    1.000
    S2       S        0.08300    0.16652    0.13809    1.000
    Mo3      Mo       0.41631    0.08325    0.06899    1.000
    S4       S        0.33280    0.16642    0.99999    1.000
    S5       S        0.33299    0.16654    0.13800    1.000
    Mo6      Mo       0.66634    0.08322    0.06904    1.000
    S7       S        0.58291    0.16624    0.99992    1.000
    S8       S        0.58307    0.16667    0.13786    1.000
    Mo9      Mo       0.91630    0.08325    0.06916    1.000
    S10      S        0.83302    0.16652    0.00011    1.000
    S11      S        0.83290    0.16664    0.13810    1.000
    Mo12     Mo       0.16622    0.33311    0.06907    1.000
    S13      S        0.08305    0.41658    0.00017    1.000
    S14      S        0.08290    0.41638    0.13806    1.000
    Mo15     Mo       0.41605    0.33301    0.06889    1.000
    S16      S        0.33285    0.41663    0.00007    1.000
    S17      S        0.33291    0.41637    0.13792    1.000
    Mo18     Mo       0.66651    0.33304    0.06878    1.000
    S19      S        0.58297    0.41657    0.00000    1.000
    S20      S        0.58307    0.41648    0.13753    1.000
    Mo21     Mo       0.91632    0.33320    0.06904    1.000
    S22      S        0.83332    0.41664    0.99992    1.000
    S23      S        0.83287    0.41647    0.13787    1.000
    Mo24     Mo       0.16632    0.58320    0.06917    1.000
    S25      S        0.08306    0.66653    0.00014    1.000
    S26      S        0.08287    0.66651    0.13807    1.000
    Mo27     Mo       0.41629    0.58326    0.06910    1.000
    S28      S        0.33297    0.66657    0.00019    1.000
    S29      S        0.33299    0.66656    0.13819    1.000
    Mo30     Mo       0.66653    0.58350    0.06889    1.000
    S31      S        0.58291    0.66670    0.00006    1.000
    S32      S        0.58319    0.66666    0.13790    1.000
    Mo33     Mo       0.91630    0.58323    0.06899    1.000
    S34      S        0.83313    0.66674    0.99999    1.000
    S35      S        0.83300    0.66656    0.13799    1.000
    Mo36     Mo       0.16635    0.83319    0.06910    1.000
    S37      S        0.08305    0.91650    0.00012    1.000
    S38      S        0.08300    0.91654    0.13802    1.000
    Mo39     Mo       0.41634    0.83322    0.06916    1.000
    S40      S        0.33301    0.91648    0.00014    1.000
    S41      S        0.33304    0.91667    0.13806    1.000
    Mo42     Mo       0.66644    0.83333    0.06906    1.000
    S43      S        0.58295    0.91650    0.00016    1.000
    S44      S        0.58316    0.91665    0.13805    1.000
    Mo45     Mo       0.91636    0.83324    0.06906    1.000
    S46      S        0.83312    0.91671    0.00014    1.000
    S47      S        0.83303    0.91654    0.13808    1.000
    H48      H        0.53654    0.60524    0.27115    1.000
    C49      C        0.48578    0.51847    0.29158    1.000
    O50      O        0.54867    0.45342    0.28944    1.000
    H51      H        0.47362    0.52976    0.33744    1.000
    H52      H        0.39944    0.46970    0.27054    1.000
    H53      H        0.56066    0.44094    0.24891    1.000
