# CIF file generated by openbabel 3.1.0, see https://openbabel.org
data_I
_chemical_name_common ''
_cell_length_a 13.105
_cell_length_b 13.105
_cell_length_c 23.0122
_cell_angle_alpha 90
_cell_angle_beta 90
_cell_angle_gamma 120
loop_
    _atom_site_label
    _atom_site_type_symbol
    _atom_site_fract_x
    _atom_site_fract_y
    _atom_site_fract_z
    _atom_site_occupancy
    Mo0      Mo       0.16611    0.08240    0.06916    1.000
    S1       S        0.08278    0.16574    0.00018    1.000
    S2       S        0.08291    0.16581    0.13813    1.000
    Mo3      Mo       0.41604    0.08240    0.06916    1.000
    S4       S        0.33267    0.16559    0.00013    1.000
    S5       S        0.33282    0.16590    0.13807    1.000
    Mo6      Mo       0.66608    0.08254    0.06920    1.000
    S7       S        0.58271    0.16576    0.00019    1.000
    S8       S        0.58265    0.16582    0.13814    1.000
    Mo9      Mo       0.91619    0.08253    0.06920    1.000
    S10      S        0.83282    0.16590    0.00029    1.000
    S11      S        0.83275    0.16575    0.13822    1.000
    Mo12     Mo       0.16607    0.33240    0.06913    1.000
    S13      S        0.08256    0.41562    0.00024    1.000
    S14      S        0.08282    0.41574    0.13818    1.000
    Mo15     Mo       0.41607    0.33242    0.06897    1.000
    S16      S        0.33256    0.41561    1.00000    1.000
    S17      S        0.33292    0.41593    0.13797    1.000
    Mo18     Mo       0.66608    0.33241    0.06914    1.000
    S19      S        0.58279    0.41562    0.00001    1.000
    S20      S        0.58273    0.41594    0.13797    1.000
    Mo21     Mo       0.91607    0.33241    0.06929    1.000
    S22      S        0.83280    0.41563    0.00024    1.000
    S23      S        0.83266    0.41575    0.13818    1.000
    Mo24     Mo       0.16602    0.58234    0.06915    1.000
    S25      S        0.08271    0.66569    0.00020    1.000
    S26      S        0.08269    0.66564    0.13815    1.000
    Mo27     Mo       0.41598    0.58242    0.06881    1.000
    S28      S        0.33255    0.66583    0.00007    1.000
    S29      S        0.33282    0.66562    0.13806    1.000
    Mo30     Mo       0.66617    0.58243    0.06882    1.000
    S31      S        0.58288    0.66605    0.99988    1.000
    S32      S        0.58274    0.66576    0.13745    1.000
    Mo33     Mo       0.91605    0.58235    0.06916    1.000
    S34      S        0.83301    0.66584    0.00007    1.000
    S35      S        0.83252    0.66562    0.13806    1.000
    Mo36     Mo       0.16603    0.83232    0.06921    1.000
    S37      S        0.08277    0.91568    0.00023    1.000
    S38      S        0.08269    0.91569    0.13815    1.000
    Mo39     Mo       0.41608    0.83241    0.06914    1.000
    S40      S        0.33266    0.91569    0.00023    1.000
    S41      S        0.33275    0.91569    0.13815    1.000
    Mo42     Mo       0.66624    0.83275    0.06897    1.000
    S43      S        0.58277    0.91605    0.00014    1.000
    S44      S        0.58280    0.91580    0.13812    1.000
    Mo45     Mo       0.91606    0.83241    0.06914    1.000
    S46      S        0.83302    0.91605    0.00014    1.000
    S47      S        0.83274    0.91580    0.13812    1.000
    H48      H        0.67232    0.70947    0.27343    1.000
    C49      C        0.58385    0.66860    0.29238    1.000
    O50      O        0.52046    0.54166    0.28434    1.000
    H51      H        0.59126    0.68320    0.33911    1.000
    H52      H        0.53597    0.70931    0.27356    1.000
    H53      H        0.51304    0.52517    0.24288    1.000
