# CIF file generated by openbabel 3.1.0, see https://openbabel.org
data_I
_chemical_name_common ''
_cell_length_a 13.105
_cell_length_b 13.105
_cell_length_c 23.0122
_cell_angle_alpha 90
_cell_angle_beta 90
_cell_angle_gamma 120
loop_
    _atom_site_label
    _atom_site_type_symbol
    _atom_site_fract_x
    _atom_site_fract_y
    _atom_site_fract_z
    _atom_site_occupancy
    Mo0      Mo       0.16760    0.08541    0.07001    1.000
    S1       S        0.08435    0.16869    0.00096    1.000
    S2       S        0.08423    0.16872    0.13894    1.000
    Mo3      Mo       0.41759    0.08541    0.07001    1.000
    S4       S        0.33429    0.16881    0.00106    1.000
    S5       S        0.33432    0.16886    0.13902    1.000
    Mo6      Mo       0.66760    0.08549    0.06991    1.000
    S7       S        0.58411    0.16868    0.00095    1.000
    S8       S        0.58426    0.16872    0.13894    1.000
    Mo9      Mo       0.91766    0.08549    0.06991    1.000
    S10      S        0.83430    0.16883    0.00094    1.000
    S11      S        0.83424    0.16871    0.13892    1.000
    Mo12     Mo       0.16752    0.33532    0.06992    1.000
    S13      S        0.08420    0.41862    0.00096    1.000
    S14      S        0.08425    0.41863    0.13893    1.000
    Mo15     Mo       0.41766    0.33554    0.06991    1.000
    S16      S        0.33429    0.41884    0.00097    1.000
    S17      S        0.33413    0.41889    0.13883    1.000
    Mo18     Mo       0.66758    0.33532    0.06992    1.000
    S19      S        0.58432    0.41884    0.00097    1.000
    S20      S        0.58455    0.41890    0.13883    1.000
    Mo21     Mo       0.91757    0.33538    0.06997    1.000
    S22      S        0.83420    0.41862    0.00096    1.000
    S23      S        0.83416    0.41864    0.13893    1.000
    Mo24     Mo       0.16757    0.58530    0.06994    1.000
    S25      S        0.08416    0.66854    0.00095    1.000
    S26      S        0.08416    0.66854    0.13890    1.000
    Mo27     Mo       0.41773    0.58566    0.06988    1.000
    S28      S        0.33425    0.66881    0.00095    1.000
    S29      S        0.33433    0.66883    0.13892    1.000
    Mo30     Mo       0.66770    0.58566    0.06988    1.000
    S31      S        0.58435    0.66893    0.00085    1.000
    S32      S        0.58462    0.66944    0.13866    1.000
    Mo33     Mo       0.91750    0.58530    0.06993    1.000
    S34      S        0.83435    0.66882    0.00094    1.000
    S35      S        0.83428    0.66884    0.13891    1.000
    Mo36     Mo       0.16753    0.83529    0.06993    1.000
    S37      S        0.08438    0.91878    0.00097    1.000
    S38      S        0.08425    0.91863    0.13892    1.000
    Mo39     Mo       0.41759    0.83549    0.06991    1.000
    S40      S        0.33418    0.91878    0.00097    1.000
    S41      S        0.33415    0.91863    0.13892    1.000
    Mo42     Mo       0.66773    0.83569    0.06975    1.000
    S43      S        0.58423    0.91893    0.00087    1.000
    S44      S        0.58433    0.91882    0.13884    1.000
    Mo45     Mo       0.91768    0.83549    0.06991    1.000
    S46      S        0.83447    0.91893    0.00087    1.000
    S47      S        0.83427    0.91882    0.13884    1.000
    H48      H        0.59295    0.55078    0.26168    1.000
    C49      C        0.50755    0.51633    0.28340    1.000
    O50      O        0.44436    0.38854    0.28582    1.000
    H51      H        0.52195    0.54660    0.32828    1.000
    H52      H        0.45615    0.54968    0.26115    1.000
    H53      H        0.42932    0.35828    0.24629    1.000
