# CIF file generated by openbabel 3.1.0, see https://openbabel.org
data_I
_chemical_name_common ''
_cell_length_a 13.105
_cell_length_b 13.105
_cell_length_c 23.0122
_cell_angle_alpha 90
_cell_angle_beta 90
_cell_angle_gamma 120
loop_
    _atom_site_label
    _atom_site_type_symbol
    _atom_site_fract_x
    _atom_site_fract_y
    _atom_site_fract_z
    _atom_site_occupancy
    Mo0      Mo       0.16628    0.08308    0.06919    1.000
    S1       S        0.08317    0.16653    0.00016    1.000
    S2       S        0.08298    0.16653    0.13810    1.000
    Mo3      Mo       0.41627    0.08309    0.06918    1.000
    S4       S        0.33294    0.16643    0.00025    1.000
    S5       S        0.33292    0.16642    0.13818    1.000
    Mo6      Mo       0.66628    0.08314    0.06903    1.000
    S7       S        0.58289    0.16655    0.00017    1.000
    S8       S        0.58304    0.16647    0.13810    1.000
    Mo9      Mo       0.91638    0.08314    0.06903    1.000
    S10      S        0.83304    0.16655    0.00014    1.000
    S11      S        0.83288    0.16622    0.13805    1.000
    Mo12     Mo       0.16651    0.33322    0.06910    1.000
    S13      S        0.08295    0.41644    0.00021    1.000
    S14      S        0.08313    0.41642    0.13814    1.000
    Mo15     Mo       0.41620    0.33315    0.06922    1.000
    S16      S        0.33299    0.41627    0.00006    1.000
    S17      S        0.33310    0.41673    0.13812    1.000
    Mo18     Mo       0.66626    0.33318    0.06913    1.000
    S19      S        0.58276    0.41629    0.00015    1.000
    S20      S        0.58302    0.41675    0.13811    1.000
    Mo21     Mo       0.91632    0.33307    0.06920    1.000
    S22      S        0.83299    0.41642    0.00023    1.000
    S23      S        0.83287    0.41641    0.13815    1.000
    Mo24     Mo       0.16632    0.58305    0.06918    1.000
    S25      S        0.08292    0.66635    0.00023    1.000
    S26      S        0.08294    0.66634    0.13814    1.000
    Mo27     Mo       0.41640    0.58310    0.06891    1.000
    S28      S        0.33277    0.66635    0.00008    1.000
    S29      S        0.33326    0.66638    0.13807    1.000
    Mo30     Mo       0.66621    0.58325    0.06892    1.000
    S31      S        0.58291    0.66636    0.99966    1.000
    S32      S        0.58334    0.66733    0.13721    1.000
    Mo33     Mo       0.91624    0.58305    0.06918    1.000
    S34      S        0.83308    0.66638    0.00010    1.000
    S35      S        0.83265    0.66643    0.13808    1.000
    Mo36     Mo       0.16627    0.83304    0.06918    1.000
    S37      S        0.08308    0.91644    0.00018    1.000
    S38      S        0.08285    0.91635    0.13810    1.000
    Mo39     Mo       0.41623    0.83304    0.06903    1.000
    S40      S        0.33285    0.91644    0.00017    1.000
    S41      S        0.33300    0.91633    0.13810    1.000
    Mo42     Mo       0.66640    0.83331    0.06844    1.000
    S43      S        0.58269    0.91673    0.99986    1.000
    S44      S        0.58307    0.91618    0.13784    1.000
    Mo45     Mo       0.91633    0.83309    0.06904    1.000
    S46      S        0.83355    0.91673    0.99986    1.000
    S47      S        0.83261    0.91620    0.13785    1.000
    H48      H        0.58561    0.66444    0.33524    1.000
    C49      C        0.58309    0.66568    0.28778    1.000
    O50      O        0.51778    0.54678    0.26414    1.000
    H51      H        0.53585    0.71019    0.27397    1.000
    H52      H        0.67304    0.71362    0.27066    1.000
    H53      H        0.55658    0.50352    0.27609    1.000
