# CIF file generated by openbabel 3.1.0, see https://openbabel.org
data_I
_chemical_name_common ''
_cell_length_a 13.105
_cell_length_b 13.105
_cell_length_c 23.0122
_cell_angle_alpha 90
_cell_angle_beta 90
_cell_angle_gamma 120
loop_
    _atom_site_label
    _atom_site_type_symbol
    _atom_site_fract_x
    _atom_site_fract_y
    _atom_site_fract_z
    _atom_site_occupancy
    Mo0      Mo       0.16779    0.07707    0.06898    1.000
    S1       S        0.08462    0.16043    0.99994    1.000
    S2       S        0.08445    0.16045    0.13788    1.000
    Mo3      Mo       0.41781    0.07700    0.06889    1.000
    S4       S        0.33440    0.16033    0.99999    1.000
    S5       S        0.33463    0.16049    0.13791    1.000
    Mo6      Mo       0.66779    0.07698    0.06875    1.000
    S7       S        0.58426    0.16009    0.99975    1.000
    S8       S        0.58462    0.16046    0.13772    1.000
    Mo9      Mo       0.91786    0.07704    0.06882    1.000
    S10      S        0.83456    0.16039    0.99984    1.000
    S11      S        0.83444    0.16031    0.13772    1.000
    Mo12     Mo       0.16789    0.32710    0.06887    1.000
    S13      S        0.08470    0.41058    0.99996    1.000
    S14      S        0.08445    0.41028    0.13790    1.000
    Mo15     Mo       0.41799    0.32712    0.06891    1.000
    S16      S        0.33462    0.41050    0.00000    1.000
    S17      S        0.33445    0.41032    0.13790    1.000
    Mo18     Mo       0.66784    0.32692    0.06858    1.000
    S19      S        0.58445    0.41039    0.99978    1.000
    S20      S        0.58485    0.41007    0.13762    1.000
    Mo21     Mo       0.91788    0.32706    0.06881    1.000
    S22      S        0.83475    0.41052    0.99979    1.000
    S23      S        0.83428    0.41018    0.13774    1.000
    Mo24     Mo       0.16782    0.57708    0.06902    1.000
    S25      S        0.08455    0.66043    0.00003    1.000
    S26      S        0.08427    0.66028    0.13795    1.000
    Mo27     Mo       0.41803    0.57719    0.06903    1.000
    S28      S        0.33447    0.66035    0.00008    1.000
    S29      S        0.33455    0.66051    0.13802    1.000
    Mo30     Mo       0.66776    0.57699    0.06892    1.000
    S31      S        0.58440    0.66023    0.99980    1.000
    S32      S        0.58510    0.66113    0.13760    1.000
    Mo33     Mo       0.91776    0.57701    0.06890    1.000
    S34      S        0.83449    0.66036    0.99994    1.000
    S35      S        0.83427    0.66021    0.13791    1.000
    Mo36     Mo       0.16775    0.82705    0.06901    1.000
    S37      S        0.08446    0.91041    0.00003    1.000
    S38      S        0.08430    0.91034    0.13794    1.000
    Mo39     Mo       0.41778    0.82707    0.06895    1.000
    S40      S        0.33431    0.91026    1.00000    1.000
    S41      S        0.33453    0.91048    0.13792    1.000
    Mo42     Mo       0.66785    0.82710    0.06858    1.000
    S43      S        0.58419    0.91029    0.99980    1.000
    S44      S        0.58464    0.91035    0.13776    1.000
    Mo45     Mo       0.91773    0.82696    0.06891    1.000
    S46      S        0.83469    0.91043    0.99980    1.000
    S47      S        0.83430    0.91030    0.13776    1.000
    H48      H        0.37732    0.52418    0.27034    1.000
    C49      C        0.46880    0.56429    0.28512    1.000
    O50      O        0.52942    0.50952    0.25743    1.000
    H51      H        0.51636    0.65650    0.27206    1.000
    H52      H        0.47121    0.55875    0.33247    1.000
    H53      H        0.48991    0.42680    0.26827    1.000
