# CIF file generated by openbabel 3.1.0, see https://openbabel.org
data_I
_chemical_name_common ''
_cell_length_a 13.105
_cell_length_b 13.105
_cell_length_c 23.0122
_cell_angle_alpha 90
_cell_angle_beta 90
_cell_angle_gamma 120
loop_
    _atom_site_label
    _atom_site_type_symbol
    _atom_site_fract_x
    _atom_site_fract_y
    _atom_site_fract_z
    _atom_site_occupancy
    Mo0      Mo       0.16417    0.08331    0.06969    1.000
    S1       S        0.08082    0.16640    0.00052    1.000
    S2       S        0.08077    0.16677    0.13848    1.000
    Mo3      Mo       0.41426    0.08339    0.06977    1.000
    S4       S        0.33094    0.16674    0.00083    1.000
    S5       S        0.33080    0.16667    0.13876    1.000
    Mo6      Mo       0.66419    0.08335    0.06961    1.000
    S7       S        0.58080    0.16678    0.00075    1.000
    S8       S        0.58102    0.16677    0.13868    1.000
    Mo9      Mo       0.91415    0.08321    0.06951    1.000
    S10      S        0.83081    0.16664    0.00062    1.000
    S11      S        0.83087    0.16656    0.13852    1.000
    Mo12     Mo       0.16402    0.33324    0.06931    1.000
    S13      S        0.08069    0.41679    0.00052    1.000
    S14      S        0.08093    0.41661    0.13847    1.000
    Mo15     Mo       0.41415    0.33339    0.06978    1.000
    S16      S        0.33108    0.41677    0.00064    1.000
    S17      S        0.33007    0.41629    0.13841    1.000
    Mo18     Mo       0.66412    0.33344    0.06971    1.000
    S19      S        0.58071    0.41668    0.00079    1.000
    S20      S        0.58083    0.41681    0.13879    1.000
    Mo21     Mo       0.91412    0.33331    0.06959    1.000
    S22      S        0.83075    0.41669    0.00071    1.000
    S23      S        0.83088    0.41665    0.13864    1.000
    Mo24     Mo       0.16416    0.58336    0.06957    1.000
    S25      S        0.08088    0.66681    0.00069    1.000
    S26      S        0.08088    0.66666    0.13862    1.000
    Mo27     Mo       0.41431    0.58336    0.06974    1.000
    S28      S        0.33095    0.66660    0.00069    1.000
    S29      S        0.33081    0.66678    0.13850    1.000
    Mo30     Mo       0.66405    0.58339    0.06976    1.000
    S31      S        0.58069    0.66644    0.00058    1.000
    S32      S        0.58123    0.66735    0.13846    1.000
    Mo33     Mo       0.91415    0.58333    0.06968    1.000
    S34      S        0.83072    0.66649    0.00071    1.000
    S35      S        0.83079    0.66662    0.13868    1.000
    Mo36     Mo       0.16430    0.83339    0.06970    1.000
    S37      S        0.08100    0.91666    0.00074    1.000
    S38      S        0.08082    0.91661    0.13863    1.000
    Mo39     Mo       0.41426    0.83339    0.06957    1.000
    S40      S        0.33095    0.91685    0.00072    1.000
    S41      S        0.33100    0.91663    0.13865    1.000
    Mo42     Mo       0.66423    0.83328    0.06935    1.000
    S43      S        0.58084    0.91677    0.00054    1.000
    S44      S        0.58098    0.91652    0.13850    1.000
    Mo45     Mo       0.91420    0.83320    0.06963    1.000
    S46      S        0.83104    0.91652    0.00052    1.000
    S47      S        0.83076    0.91652    0.13848    1.000
    H48      H        0.33681    0.55826    0.26381    1.000
    C49      C        0.42352    0.58965    0.28354    1.000
    O50      O        0.47940    0.52518    0.26163    1.000
    H51      H        0.48131    0.68133    0.27128    1.000
    H52      H        0.41490    0.58324    0.33085    1.000
    H53      H        0.42803    0.44192    0.26980    1.000
