# CIF file generated by openbabel 3.1.0, see https://openbabel.org
data_I
_chemical_name_common ''
_cell_length_a 13.105
_cell_length_b 13.105
_cell_length_c 23.0122
_cell_angle_alpha 90
_cell_angle_beta 90
_cell_angle_gamma 120
loop_
    _atom_site_label
    _atom_site_type_symbol
    _atom_site_fract_x
    _atom_site_fract_y
    _atom_site_fract_z
    _atom_site_occupancy
    Mo0      Mo       0.16596    0.08405    0.06884    1.000
    S1       S        0.08240    0.16723    0.99993    1.000
    S2       S        0.08263    0.16732    0.13784    1.000
    Mo3      Mo       0.41602    0.08422    0.06882    1.000
    S4       S        0.33258    0.16746    0.99985    1.000
    S5       S        0.33280    0.16770    0.13776    1.000
    Mo6      Mo       0.66593    0.08419    0.06887    1.000
    S7       S        0.58260    0.16739    0.99982    1.000
    S8       S        0.58268    0.16775    0.13775    1.000
    Mo9      Mo       0.91590    0.08404    0.06895    1.000
    S10      S        0.83258    0.16731    0.99994    1.000
    S11      S        0.83252    0.16749    0.13786    1.000
    Mo12     Mo       0.16568    0.33396    0.06881    1.000
    S13      S        0.08243    0.41742    0.99993    1.000
    S14      S        0.08232    0.41726    0.13781    1.000
    Mo15     Mo       0.41598    0.33428    0.06866    1.000
    S16      S        0.33239    0.41758    0.99985    1.000
    S17      S        0.33234    0.41732    0.13769    1.000
    Mo18     Mo       0.66588    0.33423    0.06863    1.000
    S19      S        0.58251    0.41761    0.99956    1.000
    S20      S        0.58268    0.41745    0.13745    1.000
    Mo21     Mo       0.91576    0.33407    0.06883    1.000
    S22      S        0.83264    0.41747    0.99978    1.000
    S23      S        0.83235    0.41741    0.13773    1.000
    Mo24     Mo       0.16584    0.58405    0.06892    1.000
    S25      S        0.08263    0.66737    0.99991    1.000
    S26      S        0.08244    0.66733    0.13782    1.000
    Mo27     Mo       0.41583    0.58418    0.06890    1.000
    S28      S        0.33254    0.66751    0.99999    1.000
    S29      S        0.33251    0.66743    0.13792    1.000
    Mo30     Mo       0.66584    0.58411    0.06870    1.000
    S31      S        0.58248    0.66763    0.99990    1.000
    S32      S        0.58265    0.66751    0.13780    1.000
    Mo33     Mo       0.91583    0.58404    0.06881    1.000
    S34      S        0.83259    0.66748    0.99984    1.000
    S35      S        0.83243    0.66727    0.13777    1.000
    Mo36     Mo       0.16601    0.83404    0.06887    1.000
    S37      S        0.08273    0.91732    0.99991    1.000
    S38      S        0.08269    0.91735    0.13778    1.000
    Mo39     Mo       0.41596    0.83415    0.06895    1.000
    S40      S        0.33272    0.91744    0.99994    1.000
    S41      S        0.33270    0.91759    0.13784    1.000
    Mo42     Mo       0.66602    0.83424    0.06890    1.000
    S43      S        0.58259    0.91749    0.99999    1.000
    S44      S        0.58272    0.91761    0.13786    1.000
    Mo45     Mo       0.91598    0.83404    0.06884    1.000
    S46      S        0.83270    0.91751    0.99996    1.000
    S47      S        0.83271    0.91734    0.13788    1.000
    H48      H        0.44379    0.42576    0.25543    1.000
    C49      C        0.52094    0.47114    0.28374    1.000
    O50      O        0.58803    0.41010    0.28568    1.000
    H51      H        0.58015    0.55817    0.26589    1.000
    H52      H        0.49292    0.48076    0.32719    1.000
    H53      H        0.53744    0.33129    0.30081    1.000
