# CIF file generated by openbabel 3.1.0, see https://openbabel.org
data_I
_chemical_name_common ''
_cell_length_a 13.105
_cell_length_b 13.105
_cell_length_c 23.0122
_cell_angle_alpha 90
_cell_angle_beta 90
_cell_angle_gamma 120
loop_
    _atom_site_label
    _atom_site_type_symbol
    _atom_site_fract_x
    _atom_site_fract_y
    _atom_site_fract_z
    _atom_site_occupancy
    Mo0      Mo       0.16822    0.08692    0.06905    1.000
    S1       S        0.08476    0.17003    0.99999    1.000
    S2       S        0.08487    0.17039    0.13790    1.000
    Mo3      Mo       0.41809    0.08694    0.06913    1.000
    S4       S        0.33482    0.17019    0.00014    1.000
    S5       S        0.33489    0.17050    0.13812    1.000
    Mo6      Mo       0.66802    0.08687    0.06900    1.000
    S7       S        0.58458    0.17006    0.00004    1.000
    S8       S        0.58487    0.17042    0.13797    1.000
    Mo9      Mo       0.91810    0.08683    0.06897    1.000
    S10      S        0.83467    0.17009    0.00003    1.000
    S11      S        0.83474    0.17018    0.13791    1.000
    Mo12     Mo       0.16808    0.33691    0.06876    1.000
    S13      S        0.08466    0.42027    0.99993    1.000
    S14      S        0.08476    0.42010    0.13786    1.000
    Mo15     Mo       0.41822    0.33698    0.06907    1.000
    S16      S        0.33486    0.42016    0.99988    1.000
    S17      S        0.33444    0.42017    0.13773    1.000
    Mo18     Mo       0.66810    0.33693    0.06883    1.000
    S19      S        0.58464    0.42011    0.99986    1.000
    S20      S        0.58503    0.42022    0.13778    1.000
    Mo21     Mo       0.91805    0.33683    0.06894    1.000
    S22      S        0.83485    0.42024    0.99996    1.000
    S23      S        0.83464    0.42010    0.13790    1.000
    Mo24     Mo       0.16805    0.58684    0.06898    1.000
    S25      S        0.08481    0.67028    0.00008    1.000
    S26      S        0.08471    0.67008    0.13799    1.000
    Mo27     Mo       0.41799    0.58681    0.06883    1.000
    S28      S        0.33468    0.67028    0.00002    1.000
    S29      S        0.33475    0.67002    0.13795    1.000
    Mo30     Mo       0.66806    0.58670    0.06880    1.000
    S31      S        0.58475    0.67022    0.99989    1.000
    S32      S        0.58478    0.67020    0.13772    1.000
    Mo33     Mo       0.91811    0.58682    0.06900    1.000
    S34      S        0.83490    0.67021    0.00001    1.000
    S35      S        0.83454    0.66998    0.13793    1.000
    Mo36     Mo       0.16810    0.83685    0.06911    1.000
    S37      S        0.08484    0.92018    0.00013    1.000
    S38      S        0.08475    0.92022    0.13802    1.000
    Mo39     Mo       0.41807    0.83685    0.06906    1.000
    S40      S        0.33474    0.92024    0.00017    1.000
    S41      S        0.33480    0.92021    0.13806    1.000
    Mo42     Mo       0.66811    0.83692    0.06888    1.000
    S43      S        0.58463    0.92023    0.00004    1.000
    S44      S        0.58480    0.92019    0.13795    1.000
    Mo45     Mo       0.91809    0.83683    0.06902    1.000
    S46      S        0.83486    0.92020    0.00002    1.000
    S47      S        0.83470    0.92016    0.13792    1.000
    H48      H        0.46072    0.55211    0.26603    1.000
    C49      C        0.50381    0.50536    0.28338    1.000
    O50      O        0.44611    0.38364    0.26339    1.000
    H51      H        0.59372    0.54684    0.26690    1.000
    H52      H        0.50585    0.51020    0.33084    1.000
    H53      H        0.36430    0.34445    0.27575    1.000
