# CIF file generated by openbabel 3.1.0, see https://openbabel.org
data_I
_chemical_name_common ''
_cell_length_a 13.105
_cell_length_b 13.105
_cell_length_c 23.0122
_cell_angle_alpha 90
_cell_angle_beta 90
_cell_angle_gamma 120
loop_
    _atom_site_label
    _atom_site_type_symbol
    _atom_site_fract_x
    _atom_site_fract_y
    _atom_site_fract_z
    _atom_site_occupancy
    Mo0      Mo       0.16693    0.08596    0.06953    1.000
    S1       S        0.08365    0.16918    0.00043    1.000
    S2       S        0.08357    0.16938    0.13836    1.000
    Mo3      Mo       0.41686    0.08601    0.06958    1.000
    S4       S        0.33373    0.16954    0.00067    1.000
    S5       S        0.33352    0.16933    0.13860    1.000
    Mo6      Mo       0.66685    0.08605    0.06945    1.000
    S7       S        0.58346    0.16948    0.00060    1.000
    S8       S        0.58354    0.16928    0.13852    1.000
    Mo9      Mo       0.91690    0.08601    0.06938    1.000
    S10      S        0.83350    0.16937    0.00047    1.000
    S11      S        0.83360    0.16931    0.13835    1.000
    Mo12     Mo       0.16689    0.33599    0.06928    1.000
    S13      S        0.08352    0.41941    0.00044    1.000
    S14      S        0.08357    0.41920    0.13838    1.000
    Mo15     Mo       0.41685    0.33618    0.06974    1.000
    S16      S        0.33386    0.41959    0.00058    1.000
    S17      S        0.33293    0.41914    0.13847    1.000
    Mo18     Mo       0.66673    0.33607    0.06962    1.000
    S19      S        0.58348    0.41959    0.00080    1.000
    S20      S        0.58350    0.41936    0.13877    1.000
    Mo21     Mo       0.91683    0.33602    0.06945    1.000
    S22      S        0.83334    0.41944    0.00063    1.000
    S23      S        0.83346    0.41924    0.13854    1.000
    Mo24     Mo       0.16685    0.58596    0.06949    1.000
    S25      S        0.08330    0.66918    0.00059    1.000
    S26      S        0.08352    0.66920    0.13853    1.000
    Mo27     Mo       0.41705    0.58611    0.06970    1.000
    S28      S        0.33364    0.66926    0.00061    1.000
    S29      S        0.33349    0.66946    0.13850    1.000
    Mo30     Mo       0.66675    0.58616    0.06985    1.000
    S31      S        0.58344    0.66910    0.00056    1.000
    S32      S        0.58397    0.67027    0.13840    1.000
    Mo33     Mo       0.91675    0.58599    0.06966    1.000
    S34      S        0.83331    0.66925    0.00077    1.000
    S35      S        0.83355    0.66947    0.13872    1.000
    Mo36     Mo       0.16678    0.83588    0.06955    1.000
    S37      S        0.08347    0.91919    0.00063    1.000
    S38      S        0.08353    0.91930    0.13851    1.000
    Mo39     Mo       0.41682    0.83603    0.06948    1.000
    S40      S        0.33342    0.91934    0.00057    1.000
    S41      S        0.33347    0.91925    0.13849    1.000
    Mo42     Mo       0.66684    0.83604    0.06925    1.000
    S43      S        0.58335    0.91941    0.00043    1.000
    S44      S        0.58357    0.91931    0.13838    1.000
    Mo45     Mo       0.91682    0.83600    0.06960    1.000
    S46      S        0.83370    0.91932    0.00043    1.000
    S47      S        0.83336    0.91943    0.13839    1.000
    H48      H        0.33334    0.51922    0.27289    1.000
    C49      C        0.42677    0.57626    0.28325    1.000
    O50      O        0.49811    0.52937    0.25954    1.000
    H51      H        0.45815    0.66157    0.26251    1.000
    H52      H        0.43807    0.58846    0.33029    1.000
    H53      H        0.47196    0.45227    0.27647    1.000
