# CIF file generated by openbabel 3.1.0, see https://openbabel.org
data_I
_chemical_name_common ''
_cell_length_a 13.105
_cell_length_b 13.105
_cell_length_c 23.0122
_cell_angle_alpha 90
_cell_angle_beta 90
_cell_angle_gamma 120
loop_
    _atom_site_label
    _atom_site_type_symbol
    _atom_site_fract_x
    _atom_site_fract_y
    _atom_site_fract_z
    _atom_site_occupancy
    Mo0      Mo       0.16646    0.08396    0.06981    1.000
    S1       S        0.08316    0.16710    0.00070    1.000
    S2       S        0.08313    0.16738    0.13866    1.000
    Mo3      Mo       0.41641    0.08400    0.06983    1.000
    S4       S        0.33316    0.16746    0.00088    1.000
    S5       S        0.33311    0.16743    0.13883    1.000
    Mo6      Mo       0.66640    0.08386    0.06977    1.000
    S7       S        0.58308    0.16731    0.00087    1.000
    S8       S        0.58309    0.16723    0.13879    1.000
    Mo9      Mo       0.91644    0.08380    0.06968    1.000
    S10      S        0.83305    0.16720    0.00079    1.000
    S11      S        0.83314    0.16711    0.13870    1.000
    Mo12     Mo       0.16633    0.33388    0.06955    1.000
    S13      S        0.08299    0.41727    0.00069    1.000
    S14      S        0.08326    0.41727    0.13866    1.000
    Mo15     Mo       0.41642    0.33408    0.06987    1.000
    S16      S        0.33323    0.41744    0.00080    1.000
    S17      S        0.33253    0.41705    0.13863    1.000
    Mo18     Mo       0.66627    0.33395    0.06985    1.000
    S19      S        0.58296    0.41733    0.00090    1.000
    S20      S        0.58294    0.41734    0.13893    1.000
    Mo21     Mo       0.91639    0.33386    0.06977    1.000
    S22      S        0.83291    0.41714    0.00087    1.000
    S23      S        0.83300    0.41714    0.13879    1.000
    Mo24     Mo       0.16623    0.58389    0.06967    1.000
    S25      S        0.08292    0.66725    0.00080    1.000
    S26      S        0.08298    0.66710    0.13874    1.000
    Mo27     Mo       0.41645    0.58406    0.06987    1.000
    S28      S        0.33305    0.66733    0.00079    1.000
    S29      S        0.33286    0.66759    0.13857    1.000
    Mo30     Mo       0.66622    0.58390    0.06992    1.000
    S31      S        0.58294    0.66708    0.00076    1.000
    S32      S        0.58337    0.66786    0.13866    1.000
    Mo33     Mo       0.91625    0.58384    0.06982    1.000
    S34      S        0.83278    0.66705    0.00088    1.000
    S35      S        0.83285    0.66711    0.13885    1.000
    Mo36     Mo       0.16640    0.83385    0.06982    1.000
    S37      S        0.08307    0.91715    0.00090    1.000
    S38      S        0.08302    0.91718    0.13876    1.000
    Mo39     Mo       0.41642    0.83413    0.06965    1.000
    S40      S        0.33299    0.91738    0.00079    1.000
    S41      S        0.33315    0.91729    0.13874    1.000
    Mo42     Mo       0.66641    0.83391    0.06953    1.000
    S43      S        0.58302    0.91731    0.00068    1.000
    S44      S        0.58303    0.91699    0.13865    1.000
    Mo45     Mo       0.91628    0.83373    0.06981    1.000
    S46      S        0.83320    0.91710    0.00069    1.000
    S47      S        0.83288    0.91709    0.13865    1.000
    H48      H        0.33171    0.53878    0.25957    1.000
    C49      C        0.41896    0.58301    0.27991    1.000
    O50      O        0.48610    0.52564    0.26475    1.000
    H51      H        0.46905    0.67259    0.26317    1.000
    H52      H        0.40960    0.58603    0.32700    1.000
    H53      H        0.44462    0.44556    0.27968    1.000
