# CIF file generated by openbabel 3.1.0, see https://openbabel.org
data_I
_chemical_name_common ''
_cell_length_a 13.105
_cell_length_b 13.105
_cell_length_c 23.0122
_cell_angle_alpha 90
_cell_angle_beta 90
_cell_angle_gamma 120
loop_
    _atom_site_label
    _atom_site_type_symbol
    _atom_site_fract_x
    _atom_site_fract_y
    _atom_site_fract_z
    _atom_site_occupancy
    Mo0      Mo       0.16688    0.08359    0.06795    1.000
    S1       S        0.08351    0.16686    0.99897    1.000
    S2       S        0.08351    0.16687    0.13694    1.000
    Mo3      Mo       0.41690    0.08360    0.06791    1.000
    S4       S        0.33347    0.16683    0.99893    1.000
    S5       S        0.33364    0.16704    0.13689    1.000
    Mo6      Mo       0.66685    0.08353    0.06788    1.000
    S7       S        0.58350    0.16675    0.99887    1.000
    S8       S        0.58359    0.16693    0.13684    1.000
    Mo9      Mo       0.91689    0.08354    0.06793    1.000
    S10      S        0.83360    0.16692    0.99897    1.000
    S11      S        0.83351    0.16687    0.13687    1.000
    Mo12     Mo       0.16673    0.33349    0.06793    1.000
    S13      S        0.08351    0.41690    0.99897    1.000
    S14      S        0.08352    0.41690    0.13694    1.000
    Mo15     Mo       0.41685    0.33353    0.06782    1.000
    S16      S        0.33333    0.41678    0.99891    1.000
    S17      S        0.33346    0.41686    0.13678    1.000
    Mo18     Mo       0.66695    0.33346    0.06777    1.000
    S19      S        0.58352    0.41675    0.99880    1.000
    S20      S        0.58371    0.41680    0.13660    1.000
    Mo21     Mo       0.91690    0.33359    0.06793    1.000
    S22      S        0.83368    0.41691    0.99889    1.000
    S23      S        0.83346    0.41687    0.13685    1.000
    Mo24     Mo       0.16689    0.58355    0.06795    1.000
    S25      S        0.08361    0.66696    0.99901    1.000
    S26      S        0.08348    0.66683    0.13692    1.000
    Mo27     Mo       0.41684    0.58356    0.06781    1.000
    S28      S        0.33347    0.66689    0.99892    1.000
    S29      S        0.33365    0.66686    0.13688    1.000
    Mo30     Mo       0.66689    0.58355    0.06771    1.000
    S31      S        0.58352    0.66697    0.99879    1.000
    S32      S        0.58370    0.66712    0.13658    1.000
    Mo33     Mo       0.91685    0.58354    0.06790    1.000
    S34      S        0.83364    0.66693    0.99886    1.000
    S35      S        0.83334    0.66678    0.13682    1.000
    Mo36     Mo       0.16689    0.83357    0.06800    1.000
    S37      S        0.08361    0.91690    0.99901    1.000
    S38      S        0.08347    0.91690    0.13692    1.000
    Mo39     Mo       0.41690    0.83355    0.06790    1.000
    S40      S        0.33347    0.91687    0.99900    1.000
    S41      S        0.33366    0.91696    0.13691    1.000
    Mo42     Mo       0.66695    0.83370    0.06776    1.000
    S43      S        0.58350    0.91696    0.99887    1.000
    S44      S        0.58359    0.91686    0.13684    1.000
    Mo45     Mo       0.91684    0.83355    0.06789    1.000
    S46      S        0.83368    0.91700    0.99888    1.000
    S47      S        0.83346    0.91682    0.13685    1.000
    H48      H        0.53341    0.58448    0.26285    1.000
    C49      C        0.49180    0.49714    0.28308    1.000
    O50      O        0.50695    0.50500    0.34575    1.000
    H51      H        0.39717    0.45295    0.27533    1.000
    H52      H        0.52721    0.44516    0.26340    1.000
    H53      H        0.59065    0.54541    0.35439    1.000
