# CIF file generated by openbabel 3.1.0, see https://openbabel.org
data_I
_chemical_name_common ''
_cell_length_a 13.105
_cell_length_b 13.105
_cell_length_c 23.0122
_cell_angle_alpha 90
_cell_angle_beta 90
_cell_angle_gamma 120
loop_
    _atom_site_label
    _atom_site_type_symbol
    _atom_site_fract_x
    _atom_site_fract_y
    _atom_site_fract_z
    _atom_site_occupancy
    Mo0      Mo       0.16637    0.08326    0.06767    1.000
    S1       S        0.08306    0.16661    0.99873    1.000
    S2       S        0.08321    0.16673    0.13666    1.000
    Mo3      Mo       0.41647    0.08326    0.06768    1.000
    S4       S        0.33303    0.16647    0.99869    1.000
    S5       S        0.33310    0.16665    0.13653    1.000
    Mo6      Mo       0.66646    0.08332    0.06774    1.000
    S7       S        0.58311    0.16657    0.99873    1.000
    S8       S        0.58311    0.16672    0.13667    1.000
    Mo9      Mo       0.91645    0.08333    0.06774    1.000
    S10      S        0.83310    0.16663    0.99878    1.000
    S11      S        0.83312    0.16666    0.13672    1.000
    Mo12     Mo       0.16639    0.33330    0.06762    1.000
    S13      S        0.08308    0.41663    0.99872    1.000
    S14      S        0.08323    0.41666    0.13667    1.000
    Mo15     Mo       0.41649    0.33334    0.06753    1.000
    S16      S        0.33308    0.41674    0.99862    1.000
    S17      S        0.33312    0.41676    0.13640    1.000
    Mo18     Mo       0.66656    0.33328    0.06761    1.000
    S19      S        0.58331    0.41671    0.99862    1.000
    S20      S        0.58328    0.41672    0.13641    1.000
    Mo21     Mo       0.91648    0.33331    0.06774    1.000
    S22      S        0.83324    0.41662    0.99871    1.000
    S23      S        0.83310    0.41665    0.13666    1.000
    Mo24     Mo       0.16648    0.58330    0.06768    1.000
    S25      S        0.08315    0.66665    0.99872    1.000
    S26      S        0.08312    0.66661    0.13664    1.000
    Mo27     Mo       0.41652    0.58345    0.06759    1.000
    S28      S        0.33315    0.66678    0.99872    1.000
    S29      S        0.33314    0.66658    0.13666    1.000
    Mo30     Mo       0.66656    0.58342    0.06759    1.000
    S31      S        0.58323    0.66679    0.99869    1.000
    S32      S        0.58313    0.66660    0.13662    1.000
    Mo33     Mo       0.91647    0.58329    0.06768    1.000
    S34      S        0.83324    0.66674    0.99872    1.000
    S35      S        0.83306    0.66655    0.13666    1.000
    Mo36     Mo       0.16646    0.83331    0.06771    1.000
    S37      S        0.08306    0.91659    0.99875    1.000
    S38      S        0.08318    0.91668    0.13669    1.000
    Mo39     Mo       0.41647    0.83334    0.06775    1.000
    S40      S        0.33313    0.91662    0.99876    1.000
    S41      S        0.33309    0.91669    0.13670    1.000
    Mo42     Mo       0.66651    0.83339    0.06772    1.000
    S43      S        0.58314    0.91669    0.99877    1.000
    S44      S        0.58314    0.91666    0.13672    1.000
    Mo45     Mo       0.91647    0.83332    0.06775    1.000
    S46      S        0.83317    0.91670    0.99877    1.000
    S47      S        0.83315    0.91668    0.13672    1.000
    H48      H        0.37899    0.38859    0.26541    1.000
    C49      C        0.41606    0.33653    0.28316    1.000
    O50      O        0.41688    0.33778    0.34628    1.000
    H51      H        0.36019    0.24478    0.27043    1.000
    H52      H        0.50455    0.36904    0.26533    1.000
    H53      H        0.46342    0.41883    0.35931    1.000
