# CIF file generated by openbabel 3.1.0, see https://openbabel.org
data_I
_chemical_name_common ''
_cell_length_a 13.105
_cell_length_b 13.105
_cell_length_c 23.0122
_cell_angle_alpha 90
_cell_angle_beta 90
_cell_angle_gamma 120
loop_
    _atom_site_label
    _atom_site_type_symbol
    _atom_site_fract_x
    _atom_site_fract_y
    _atom_site_fract_z
    _atom_site_occupancy
    Mo0      Mo       0.16622    0.08361    0.06791    1.000
    S1       S        0.08285    0.16694    0.99897    1.000
    S2       S        0.08296    0.16700    0.13692    1.000
    Mo3      Mo       0.41625    0.08354    0.06792    1.000
    S4       S        0.33291    0.16683    0.99893    1.000
    S5       S        0.33290    0.16684    0.13683    1.000
    Mo6      Mo       0.66626    0.08367    0.06799    1.000
    S7       S        0.58296    0.16694    0.99898    1.000
    S8       S        0.58293    0.16705    0.13692    1.000
    Mo9      Mo       0.91623    0.08369    0.06797    1.000
    S10      S        0.83290    0.16701    0.99901    1.000
    S11      S        0.83295    0.16705    0.13695    1.000
    Mo12     Mo       0.16625    0.33361    0.06790    1.000
    S13      S        0.08293    0.41697    0.99897    1.000
    S14      S        0.08302    0.41699    0.13692    1.000
    Mo15     Mo       0.41633    0.33359    0.06788    1.000
    S16      S        0.33296    0.41695    0.99894    1.000
    S17      S        0.33289    0.41687    0.13680    1.000
    Mo18     Mo       0.66639    0.33369    0.06789    1.000
    S19      S        0.58310    0.41707    0.99892    1.000
    S20      S        0.58315    0.41707    0.13679    1.000
    Mo21     Mo       0.91633    0.33369    0.06796    1.000
    S22      S        0.83309    0.41705    0.99896    1.000
    S23      S        0.83301    0.41707    0.13690    1.000
    Mo24     Mo       0.16626    0.58362    0.06794    1.000
    S25      S        0.08293    0.66699    0.99896    1.000
    S26      S        0.08292    0.66698    0.13689    1.000
    Mo27     Mo       0.41626    0.58361    0.06794    1.000
    S28      S        0.33294    0.66695    0.99900    1.000
    S29      S        0.33287    0.66684    0.13694    1.000
    Mo30     Mo       0.66632    0.58376    0.06790    1.000
    S31      S        0.58293    0.66710    0.99899    1.000
    S32      S        0.58293    0.66699    0.13693    1.000
    Mo33     Mo       0.91630    0.58372    0.06793    1.000
    S34      S        0.83300    0.66716    0.99898    1.000
    S35      S        0.83292    0.66703    0.13691    1.000
    Mo36     Mo       0.16621    0.83362    0.06794    1.000
    S37      S        0.08283    0.91694    0.99898    1.000
    S38      S        0.08294    0.91702    0.13692    1.000
    Mo39     Mo       0.41621    0.83357    0.06799    1.000
    S40      S        0.33289    0.91682    0.99899    1.000
    S41      S        0.33284    0.91690    0.13693    1.000
    Mo42     Mo       0.66623    0.83373    0.06798    1.000
    S43      S        0.58288    0.91702    0.99903    1.000
    S44      S        0.58288    0.91700    0.13696    1.000
    Mo45     Mo       0.91624    0.83374    0.06798    1.000
    S46      S        0.83287    0.91705    0.99901    1.000
    S47      S        0.83289    0.91707    0.13695    1.000
    H48      H        0.45128    0.42731    0.26283    1.000
    C49      C        0.41037    0.33928    0.28236    1.000
    O50      O        0.41940    0.34504    0.34529    1.000
    H51      H        0.31651    0.29257    0.27236    1.000
    H52      H        0.45031    0.29042    0.26379    1.000
    H53      H        0.50219    0.38526    0.35586    1.000
