# CIF file generated by openbabel 3.1.0, see https://openbabel.org
data_I
_chemical_name_common ''
_cell_length_a 13.105
_cell_length_b 13.105
_cell_length_c 23.0122
_cell_angle_alpha 90
_cell_angle_beta 90
_cell_angle_gamma 120
loop_
    _atom_site_label
    _atom_site_type_symbol
    _atom_site_fract_x
    _atom_site_fract_y
    _atom_site_fract_z
    _atom_site_occupancy
    H0       H        0.49090    0.59507    0.44686    1.000
    C1       C        0.48663    0.53065    0.47847    1.000
    O2       O        0.59584    0.52734    0.47978    1.000
    H3       H        0.47594    0.55723    0.52179    1.000
    H4       H        0.41102    0.44396    0.46868    1.000
    H5       H        0.60790    0.50302    0.44178    1.000
