# CIF file generated by openbabel 3.1.0, see https://openbabel.org
data_I
_chemical_name_common ''
_cell_length_a 13.105
_cell_length_b 13.105
_cell_length_c 23.0122
_cell_angle_alpha 90
_cell_angle_beta 90
_cell_angle_gamma 120
loop_
    _atom_site_label
    _atom_site_type_symbol
    _atom_site_fract_x
    _atom_site_fract_y
    _atom_site_fract_z
    _atom_site_occupancy
    Mo0      Mo       0.16719    0.08455    0.06479    1.000
    S1       S        0.08384    0.16785    0.99582    1.000
    S2       S        0.08380    0.16786    0.13373    1.000
    Mo3      Mo       0.41732    0.08453    0.06472    1.000
    S4       S        0.33379    0.16772    0.99579    1.000
    S5       S        0.33398    0.16789    0.13372    1.000
    Mo6      Mo       0.66729    0.08450    0.06466    1.000
    S7       S        0.58387    0.16766    0.99566    1.000
    S8       S        0.58403    0.16787    0.13363    1.000
    Mo9      Mo       0.91719    0.08454    0.06474    1.000
    S10      S        0.83406    0.16804    0.99578    1.000
    S11      S        0.83387    0.16790    0.13368    1.000
    Mo12     Mo       0.16720    0.33452    0.06476    1.000
    S13      S        0.08397    0.41796    0.99582    1.000
    S14      S        0.08401    0.41799    0.13373    1.000
    Mo15     Mo       0.41721    0.33443    0.06464    1.000
    S16      S        0.33372    0.41762    0.99571    1.000
    S17      S        0.33403    0.41789    0.13369    1.000
    Mo18     Mo       0.66732    0.33437    0.06453    1.000
    S19      S        0.58384    0.41763    0.99559    1.000
    S20      S        0.58401    0.41762    0.13340    1.000
    Mo21     Mo       0.91734    0.33464    0.06477    1.000
    S22      S        0.83417    0.41797    0.99574    1.000
    S23      S        0.83381    0.41786    0.13368    1.000
    Mo24     Mo       0.16737    0.58463    0.06476    1.000
    S25      S        0.08403    0.66799    0.99582    1.000
    S26      S        0.08400    0.66795    0.13371    1.000
    Mo27     Mo       0.41724    0.58444    0.06455    1.000
    S28      S        0.33392    0.66792    0.99572    1.000
    S29      S        0.33416    0.66788    0.13367    1.000
    Mo30     Mo       0.66724    0.58440    0.06453    1.000
    S31      S        0.58390    0.66769    0.99551    1.000
    S32      S        0.58394    0.66790    0.13319    1.000
    Mo33     Mo       0.91731    0.58457    0.06474    1.000
    S34      S        0.83406    0.66789    0.99574    1.000
    S35      S        0.83374    0.66775    0.13372    1.000
    Mo36     Mo       0.16728    0.83461    0.06477    1.000
    S37      S        0.08389    0.91792    0.99582    1.000
    S38      S        0.08382    0.91786    0.13372    1.000
    Mo39     Mo       0.41734    0.83454    0.06471    1.000
    S40      S        0.33391    0.91787    0.99580    1.000
    S41      S        0.33402    0.91790    0.13369    1.000
    Mo42     Mo       0.66726    0.83449    0.06449    1.000
    S43      S        0.58390    0.91786    0.99566    1.000
    S44      S        0.58405    0.91778    0.13362    1.000
    Mo45     Mo       0.91718    0.83453    0.06474    1.000
    S46      S        0.83404    0.91795    0.99571    1.000
    S47      S        0.83369    0.91774    0.13366    1.000
    H48      H        0.57312    0.68859    0.32093    1.000
    H49      H        0.65414    0.66894    0.26469    1.000
    H50      H        0.49821    0.58795    0.26372    1.000
    C51      C        0.57560    0.62338    0.29210    1.000
    H52      H        0.49923    0.48120    0.35511    1.000
    H53      H        0.65397    0.56140    0.35600    1.000
    C54      C        0.57721    0.52393    0.32725    1.000
    H55      H        0.65287    0.46475    0.26635    1.000
    H56      H        0.50871    0.38989    0.26580    1.000
    N57      N        0.58030    0.43011    0.29248    1.000
