# CIF file generated by openbabel 3.1.0, see https://openbabel.org
data_I
_chemical_name_common ''
_cell_length_a 13.105
_cell_length_b 13.105
_cell_length_c 23.0122
_cell_angle_alpha 90
_cell_angle_beta 90
_cell_angle_gamma 120
loop_
    _atom_site_label
    _atom_site_type_symbol
    _atom_site_fract_x
    _atom_site_fract_y
    _atom_site_fract_z
    _atom_site_occupancy
    Mo0      Mo       0.16230    0.08720    0.06629    1.000
    S1       S        0.07878    0.17035    0.99731    1.000
    S2       S        0.07893    0.17052    0.13526    1.000
    Mo3      Mo       0.41213    0.08729    0.06643    1.000
    S4       S        0.32883    0.17040    0.99731    1.000
    S5       S        0.32877    0.17058    0.13542    1.000
    Mo6      Mo       0.66210    0.08714    0.06633    1.000
    S7       S        0.57867    0.17029    0.99732    1.000
    S8       S        0.57888    0.17060    0.13533    1.000
    Mo9      Mo       0.91216    0.08707    0.06632    1.000
    S10      S        0.82875    0.17036    0.99738    1.000
    S11      S        0.82881    0.17044    0.13528    1.000
    Mo12     Mo       0.16201    0.33709    0.06617    1.000
    S13      S        0.07870    0.42043    0.99727    1.000
    S14      S        0.07879    0.42040    0.13522    1.000
    Mo15     Mo       0.41193    0.33698    0.06619    1.000
    S16      S        0.32873    0.42045    0.99719    1.000
    S17      S        0.32856    0.42056    0.13500    1.000
    Mo18     Mo       0.66218    0.33701    0.06611    1.000
    S19      S        0.57872    0.42040    0.99716    1.000
    S20      S        0.57901    0.42063    0.13475    1.000
    Mo21     Mo       0.91212    0.33709    0.06629    1.000
    S22      S        0.82890    0.42044    0.99725    1.000
    S23      S        0.82869    0.42039    0.13522    1.000
    Mo24     Mo       0.16213    0.58709    0.06628    1.000
    S25      S        0.07885    0.67049    0.99734    1.000
    S26      S        0.07878    0.67039    0.13525    1.000
    Mo27     Mo       0.41216    0.58721    0.06617    1.000
    S28      S        0.32881    0.67061    0.99733    1.000
    S29      S        0.32881    0.67042    0.13526    1.000
    Mo30     Mo       0.66223    0.58729    0.06611    1.000
    S31      S        0.57884    0.67059    0.99722    1.000
    S32      S        0.57878    0.67040    0.13521    1.000
    Mo33     Mo       0.91213    0.58709    0.06627    1.000
    S34      S        0.82897    0.67054    0.99727    1.000
    S35      S        0.82872    0.67036    0.13525    1.000
    Mo36     Mo       0.16217    0.83714    0.06634    1.000
    S37      S        0.07890    0.92047    0.99735    1.000
    S38      S        0.07891    0.92053    0.13529    1.000
    Mo39     Mo       0.41213    0.83720    0.06636    1.000
    S40      S        0.32885    0.92059    0.99744    1.000
    S41      S        0.32879    0.92055    0.13536    1.000
    Mo42     Mo       0.66217    0.83712    0.06629    1.000
    S43      S        0.57878    0.92049    0.99738    1.000
    S44      S        0.57883    0.92045    0.13530    1.000
    Mo45     Mo       0.91221    0.83711    0.06631    1.000
    S46      S        0.82887    0.92043    0.99736    1.000
    S47      S        0.82884    0.92038    0.13528    1.000
    H48      H        0.49968    0.56234    0.29885    1.000
    H49      H        0.59213    0.52208    0.33670    1.000
    H50      H        0.60987    0.54880    0.26091    1.000
    C51      C        0.54479    0.51116    0.29592    1.000
    H52      H        0.40831    0.37220    0.24379    1.000
    H53      H        0.38997    0.34472    0.31871    1.000
    C54      C        0.45601    0.38010    0.28411    1.000
    H55      H        0.54086    0.29532    0.31783    1.000
    H56      H        0.57377    0.33402    0.24971    1.000
    N57      N        0.50649    0.30116    0.27908    1.000
