# CIF file generated by openbabel 3.1.0, see https://openbabel.org
data_I
_chemical_name_common ''
_cell_length_a 13.105
_cell_length_b 13.105
_cell_length_c 23.0122
_cell_angle_alpha 90
_cell_angle_beta 90
_cell_angle_gamma 120
loop_
    _atom_site_label
    _atom_site_type_symbol
    _atom_site_fract_x
    _atom_site_fract_y
    _atom_site_fract_z
    _atom_site_occupancy
    Mo0      Mo       0.16700    0.08330    0.06705    1.000
    S1       S        0.08368    0.16666    0.99807    1.000
    S2       S        0.08367    0.16673    0.13596    1.000
    Mo3      Mo       0.41705    0.08342    0.06702    1.000
    S4       S        0.33362    0.16659    0.99807    1.000
    S5       S        0.33377    0.16676    0.13602    1.000
    Mo6      Mo       0.66701    0.08366    0.06693    1.000
    S7       S        0.58358    0.16683    0.99794    1.000
    S8       S        0.58377    0.16703    0.13593    1.000
    Mo9      Mo       0.91697    0.08359    0.06701    1.000
    S10      S        0.83378    0.16709    0.99803    1.000
    S11      S        0.83360    0.16698    0.13596    1.000
    Mo12     Mo       0.16704    0.33338    0.06698    1.000
    S13      S        0.08373    0.41677    0.99806    1.000
    S14      S        0.08374    0.41670    0.13600    1.000
    Mo15     Mo       0.41711    0.33338    0.06695    1.000
    S16      S        0.33374    0.41671    0.99801    1.000
    S17      S        0.33375    0.41669    0.13595    1.000
    Mo18     Mo       0.66703    0.33354    0.06684    1.000
    S19      S        0.58365    0.41686    0.99786    1.000
    S20      S        0.58378    0.41641    0.13571    1.000
    Mo21     Mo       0.91706    0.33365    0.06703    1.000
    S22      S        0.83386    0.41709    0.99802    1.000
    S23      S        0.83351    0.41690    0.13599    1.000
    Mo24     Mo       0.16708    0.58338    0.06706    1.000
    S25      S        0.08373    0.66670    0.99810    1.000
    S26      S        0.08371    0.66667    0.13603    1.000
    Mo27     Mo       0.41705    0.58343    0.06695    1.000
    S28      S        0.33368    0.66672    0.99805    1.000
    S29      S        0.33386    0.66676    0.13600    1.000
    Mo30     Mo       0.66690    0.58340    0.06695    1.000
    S31      S        0.58364    0.66678    0.99790    1.000
    S32      S        0.58378    0.66734    0.13570    1.000
    Mo33     Mo       0.91703    0.58355    0.06706    1.000
    S34      S        0.83369    0.66693    0.99810    1.000
    S35      S        0.83349    0.66681    0.13604    1.000
    Mo36     Mo       0.16700    0.83332    0.06706    1.000
    S37      S        0.08359    0.91659    0.99811    1.000
    S38      S        0.08359    0.91662    0.13602    1.000
    Mo39     Mo       0.41703    0.83345    0.06699    1.000
    S40      S        0.33361    0.91669    0.99806    1.000
    S41      S        0.33375    0.91674    0.13600    1.000
    Mo42     Mo       0.66701    0.83369    0.06680    1.000
    S43      S        0.58360    0.91698    0.99793    1.000
    S44      S        0.58376    0.91697    0.13589    1.000
    Mo45     Mo       0.91691    0.83353    0.06705    1.000
    S46      S        0.83378    0.91700    0.99800    1.000
    S47      S        0.83343    0.91688    0.13595    1.000
    H48      H        0.57442    0.69571    0.28842    1.000
    H49      H        0.49815    0.58742    0.34242    1.000
    H50      H        0.65413    0.66868    0.34260    1.000
    C51      C        0.57630    0.62682    0.31462    1.000
    H52      H        0.65693    0.57532    0.24726    1.000
    H53      H        0.50200    0.49524    0.24666    1.000
    C54      C        0.57906    0.53316    0.27527    1.000
    H55      H        0.50881    0.38933    0.33103    1.000
    H56      H        0.65297    0.46337    0.33110    1.000
    N57      N        0.58081    0.43361    0.30499    1.000
