# CIF file generated by openbabel 3.1.0, see https://openbabel.org
data_I
_chemical_name_common ''
_cell_length_a 13.105
_cell_length_b 13.105
_cell_length_c 23.0122
_cell_angle_alpha 90
_cell_angle_beta 90
_cell_angle_gamma 120
loop_
    _atom_site_label
    _atom_site_type_symbol
    _atom_site_fract_x
    _atom_site_fract_y
    _atom_site_fract_z
    _atom_site_occupancy
    Mo0      Mo       0.16691    0.08288    0.06673    1.000
    S1       S        0.08342    0.16612    0.99778    1.000
    S2       S        0.08349    0.16614    0.13573    1.000
    Mo3      Mo       0.41686    0.08287    0.06682    1.000
    S4       S        0.33354    0.16609    0.99776    1.000
    S5       S        0.33353    0.16623    0.13577    1.000
    Mo6      Mo       0.66671    0.08278    0.06677    1.000
    S7       S        0.58342    0.16611    0.99780    1.000
    S8       S        0.58351    0.16626    0.13577    1.000
    Mo9      Mo       0.91679    0.08277    0.06676    1.000
    S10      S        0.83337    0.16607    0.99781    1.000
    S11      S        0.83338    0.16609    0.13572    1.000
    Mo12     Mo       0.16664    0.33272    0.06669    1.000
    S13      S        0.08342    0.41616    0.99778    1.000
    S14      S        0.08343    0.41611    0.13574    1.000
    Mo15     Mo       0.41697    0.33274    0.06666    1.000
    S16      S        0.33344    0.41609    0.99775    1.000
    S17      S        0.33333    0.41592    0.13548    1.000
    Mo18     Mo       0.66685    0.33281    0.06669    1.000
    S19      S        0.58354    0.41611    0.99765    1.000
    S20      S        0.58364    0.41603    0.13559    1.000
    Mo21     Mo       0.91677    0.33278    0.06676    1.000
    S22      S        0.83356    0.41619    0.99778    1.000
    S23      S        0.83344    0.41611    0.13573    1.000
    Mo24     Mo       0.16686    0.58279    0.06677    1.000
    S25      S        0.08355    0.66614    0.99781    1.000
    S26      S        0.08358    0.66620    0.13573    1.000
    Mo27     Mo       0.41686    0.58287    0.06672    1.000
    S28      S        0.33350    0.66614    0.99780    1.000
    S29      S        0.33350    0.66612    0.13576    1.000
    Mo30     Mo       0.66683    0.58272    0.06663    1.000
    S31      S        0.58346    0.66612    0.99768    1.000
    S32      S        0.58372    0.66643    0.13550    1.000
    Mo33     Mo       0.91687    0.58279    0.06678    1.000
    S34      S        0.83364    0.66615    0.99778    1.000
    S35      S        0.83338    0.66604    0.13574    1.000
    Mo36     Mo       0.16693    0.83284    0.06675    1.000
    S37      S        0.08358    0.91618    0.99779    1.000
    S38      S        0.08361    0.91620    0.13569    1.000
    Mo39     Mo       0.41685    0.83277    0.06679    1.000
    S40      S        0.33362    0.91620    0.99782    1.000
    S41      S        0.33354    0.91616    0.13575    1.000
    Mo42     Mo       0.66691    0.83289    0.06663    1.000
    S43      S        0.58342    0.91615    0.99777    1.000
    S44      S        0.58353    0.91607    0.13574    1.000
    Mo45     Mo       0.91688    0.83279    0.06675    1.000
    S46      S        0.83363    0.91617    0.99775    1.000
    S47      S        0.83347    0.91606    0.13570    1.000
    H48      H        0.51431    0.67200    0.28897    1.000
    H49      H        0.39140    0.55701    0.25278    1.000
    H50      H        0.40101    0.55522    0.32943    1.000
    C51      C        0.45218    0.57697    0.28922    1.000
    H52      H        0.57807    0.52815    0.32085    1.000
    H53      H        0.57160    0.53354    0.24494    1.000
    C54      C        0.51743    0.50680    0.28428    1.000
    H55      H        0.38087    0.35204    0.25002    1.000
    H56      H        0.39574    0.34611    0.32032    1.000
    N57      N        0.44169    0.37662    0.28250    1.000
