# CIF file generated by openbabel 3.1.0, see https://openbabel.org
data_I
_chemical_name_common ''
_cell_length_a 13.105
_cell_length_b 13.105
_cell_length_c 23.0122
_cell_angle_alpha 90
_cell_angle_beta 90
_cell_angle_gamma 120
loop_
    _atom_site_label
    _atom_site_type_symbol
    _atom_site_fract_x
    _atom_site_fract_y
    _atom_site_fract_z
    _atom_site_occupancy
    Mo0      Mo       0.17016    0.08357    0.06600    1.000
    S1       S        0.08678    0.16692    0.99707    1.000
    S2       S        0.08679    0.16685    0.13499    1.000
    Mo3      Mo       0.42017    0.08356    0.06602    1.000
    S4       S        0.33681    0.16683    0.99701    1.000
    S5       S        0.33687    0.16697    0.13498    1.000
    Mo6      Mo       0.67010    0.08355    0.06603    1.000
    S7       S        0.58678    0.16682    0.99704    1.000
    S8       S        0.58680    0.16689    0.13503    1.000
    Mo9      Mo       0.92012    0.08356    0.06603    1.000
    S10      S        0.83681    0.16694    0.99709    1.000
    S11      S        0.83678    0.16691    0.13500    1.000
    Mo12     Mo       0.17009    0.33355    0.06605    1.000
    S13      S        0.08675    0.41685    0.99707    1.000
    S14      S        0.08678    0.41692    0.13502    1.000
    Mo15     Mo       0.42012    0.33355    0.06591    1.000
    S16      S        0.33665    0.41679    0.99700    1.000
    S17      S        0.33696    0.41700    0.13500    1.000
    Mo18     Mo       0.67011    0.33349    0.06600    1.000
    S19      S        0.58677    0.41677    0.99693    1.000
    S20      S        0.58674    0.41687    0.13482    1.000
    Mo21     Mo       0.92009    0.33359    0.06605    1.000
    S22      S        0.83673    0.41678    0.99702    1.000
    S23      S        0.83668    0.41690    0.13502    1.000
    Mo24     Mo       0.17012    0.58353    0.06601    1.000
    S25      S        0.08680    0.66682    0.99700    1.000
    S26      S        0.08672    0.66682    0.13495    1.000
    Mo27     Mo       0.42009    0.58356    0.06587    1.000
    S28      S        0.33672    0.66692    0.99700    1.000
    S29      S        0.33686    0.66686    0.13497    1.000
    Mo30     Mo       0.67016    0.58355    0.06581    1.000
    S31      S        0.58678    0.66691    0.99683    1.000
    S32      S        0.58687    0.66710    0.13451    1.000
    Mo33     Mo       0.92010    0.58345    0.06593    1.000
    S34      S        0.83689    0.66689    0.99692    1.000
    S35      S        0.83692    0.66693    0.13480    1.000
    Mo36     Mo       0.17009    0.83350    0.06598    1.000
    S37      S        0.08685    0.91693    0.99700    1.000
    S38      S        0.08675    0.91685    0.13492    1.000
    Mo39     Mo       0.42015    0.83354    0.06600    1.000
    S40      S        0.33681    0.91688    0.99705    1.000
    S41      S        0.33676    0.91684    0.13496    1.000
    Mo42     Mo       0.67018    0.83368    0.06582    1.000
    S43      S        0.58674    0.91699    0.99698    1.000
    S44      S        0.58683    0.91680    0.13497    1.000
    Mo45     Mo       0.92013    0.83359    0.06590    1.000
    S46      S        0.83690    0.91704    0.99695    1.000
    S47      S        0.83667    0.91675    0.13495    1.000
    H48      H        0.61817    0.73198    0.28223    1.000
    H49      H        0.49114    0.59736    0.26337    1.000
    H50      H        0.53650    0.62723    0.33692    1.000
    C51      C        0.56805    0.63760    0.29210    1.000
    H52      H        0.71986    0.61987    0.31340    1.000
    H53      H        0.68164    0.59807    0.23966    1.000
    C54      C        0.64482    0.58010    0.28358    1.000
    H55      H        0.51602    0.40883    0.26375    1.000
    H56      H        0.54977    0.42871    0.33297    1.000
    N57      N        0.58441    0.45061    0.29218    1.000
