# CIF file generated by openbabel 3.1.0, see https://openbabel.org
data_I
_chemical_name_common ''
_cell_length_a 13.105
_cell_length_b 13.105
_cell_length_c 23.0122
_cell_angle_alpha 90
_cell_angle_beta 90
_cell_angle_gamma 120
loop_
    _atom_site_label
    _atom_site_type_symbol
    _atom_site_fract_x
    _atom_site_fract_y
    _atom_site_fract_z
    _atom_site_occupancy
    Mo0      Mo       0.16422    0.08184    0.06637    1.000
    S1       S        0.08081    0.16504    0.99737    1.000
    S2       S        0.08082    0.16510    0.13534    1.000
    Mo3      Mo       0.41420    0.08177    0.06635    1.000
    S4       S        0.33091    0.16518    0.99740    1.000
    S5       S        0.33091    0.16515    0.13536    1.000
    Mo6      Mo       0.66414    0.08167    0.06635    1.000
    S7       S        0.58084    0.16503    0.99737    1.000
    S8       S        0.58086    0.16504    0.13532    1.000
    Mo9      Mo       0.91418    0.08172    0.06635    1.000
    S10      S        0.83079    0.16499    0.99739    1.000
    S11      S        0.83080    0.16501    0.13531    1.000
    Mo12     Mo       0.16401    0.33166    0.06631    1.000
    S13      S        0.08075    0.41505    0.99738    1.000
    S14      S        0.08075    0.41499    0.13533    1.000
    Mo15     Mo       0.41417    0.33176    0.06635    1.000
    S16      S        0.33080    0.41505    0.99738    1.000
    S17      S        0.33053    0.41493    0.13523    1.000
    Mo18     Mo       0.66421    0.33168    0.06631    1.000
    S19      S        0.58097    0.41527    0.99748    1.000
    S20      S        0.58079    0.41476    0.13534    1.000
    Mo21     Mo       0.91412    0.33168    0.06635    1.000
    S22      S        0.83085    0.41505    0.99737    1.000
    S23      S        0.83084    0.41507    0.13532    1.000
    Mo24     Mo       0.16412    0.58167    0.06637    1.000
    S25      S        0.08087    0.66508    0.99738    1.000
    S26      S        0.08086    0.66511    0.13531    1.000
    Mo27     Mo       0.41414    0.58171    0.06633    1.000
    S28      S        0.33081    0.66500    0.99740    1.000
    S29      S        0.33082    0.66502    0.13535    1.000
    Mo30     Mo       0.66426    0.58178    0.06659    1.000
    S31      S        0.58097    0.66497    0.99746    1.000
    S32      S        0.58076    0.66532    0.13531    1.000
    Mo33     Mo       0.91420    0.58174    0.06633    1.000
    S34      S        0.83073    0.66503    0.99746    1.000
    S35      S        0.83132    0.66533    0.13534    1.000
    Mo36     Mo       0.16421    0.83178    0.06633    1.000
    S37      S        0.08096    0.91521    0.99737    1.000
    S38      S        0.08094    0.91516    0.13531    1.000
    Mo39     Mo       0.41417    0.83170    0.06634    1.000
    S40      S        0.33088    0.91510    0.99738    1.000
    S41      S        0.33086    0.91508    0.13528    1.000
    Mo42     Mo       0.66424    0.83180    0.06630    1.000
    S43      S        0.58082    0.91502    0.99736    1.000
    S44      S        0.58084    0.91501    0.13531    1.000
    Mo45     Mo       0.91427    0.83182    0.06633    1.000
    S46      S        0.83092    0.91511    0.99736    1.000
    S47      S        0.83089    0.91506    0.13533    1.000
    H48      H        0.75750    0.63360    0.31748    1.000
    H49      H        0.69340    0.53337    0.25896    1.000
    H50      H        0.69161    0.66753    0.25896    1.000
    C51      C        0.68403    0.59613    0.28665    1.000
    H52      H        0.55718    0.59847    0.34660    1.000
    H53      H        0.56006    0.46591    0.34700    1.000
    C54      C        0.56451    0.53497    0.31860    1.000
    H55      H        0.45946    0.41795    0.25442    1.000
    H56      H        0.45583    0.54103    0.25453    1.000
    N57      N        0.45842    0.47983    0.28089    1.000
