# CIF file generated by openbabel 3.1.0, see https://openbabel.org
data_I
_chemical_name_common ''
_cell_length_a 13.105
_cell_length_b 13.105
_cell_length_c 23.0122
_cell_angle_alpha 90
_cell_angle_beta 90
_cell_angle_gamma 120
loop_
    _atom_site_label
    _atom_site_type_symbol
    _atom_site_fract_x
    _atom_site_fract_y
    _atom_site_fract_z
    _atom_site_occupancy
    Mo0      Mo       0.16404    0.08712    0.06326    1.000
    S1       S        0.08047    0.17017    0.99423    1.000
    S2       S        0.08070    0.17053    0.13218    1.000
    Mo3      Mo       0.41386    0.08720    0.06344    1.000
    S4       S        0.33058    0.17027    0.99428    1.000
    S5       S        0.33049    0.17057    0.13238    1.000
    Mo6      Mo       0.66391    0.08707    0.06332    1.000
    S7       S        0.58044    0.17024    0.99438    1.000
    S8       S        0.58063    0.17047    0.13236    1.000
    Mo9      Mo       0.91392    0.08701    0.06327    1.000
    S10      S        0.83053    0.17032    0.99434    1.000
    S11      S        0.83064    0.17037    0.13226    1.000
    Mo12     Mo       0.16372    0.33700    0.06302    1.000
    S13      S        0.08041    0.42041    0.99418    1.000
    S14      S        0.08065    0.42036    0.13213    1.000
    Mo15     Mo       0.41369    0.33691    0.06312    1.000
    S16      S        0.33047    0.42032    0.99406    1.000
    S17      S        0.33025    0.42059    0.13177    1.000
    Mo18     Mo       0.66394    0.33694    0.06318    1.000
    S19      S        0.58057    0.42031    0.99419    1.000
    S20      S        0.58063    0.42047    0.13186    1.000
    Mo21     Mo       0.91390    0.33701    0.06326    1.000
    S22      S        0.83062    0.42036    0.99430    1.000
    S23      S        0.83052    0.42030    0.13225    1.000
    Mo24     Mo       0.16390    0.58705    0.06318    1.000
    S25      S        0.08057    0.67048    0.99433    1.000
    S26      S        0.08060    0.67030    0.13223    1.000
    Mo27     Mo       0.41393    0.58718    0.06298    1.000
    S28      S        0.33055    0.67062    0.99418    1.000
    S29      S        0.33064    0.67034    0.13211    1.000
    Mo30     Mo       0.66395    0.58718    0.06311    1.000
    S31      S        0.58071    0.67056    0.99413    1.000
    S32      S        0.58043    0.67032    0.13210    1.000
    Mo33     Mo       0.91389    0.58701    0.06328    1.000
    S34      S        0.83073    0.67045    0.99428    1.000
    S35      S        0.83045    0.67031    0.13223    1.000
    Mo36     Mo       0.16394    0.83708    0.06335    1.000
    S37      S        0.08066    0.92037    0.99436    1.000
    S38      S        0.08064    0.92047    0.13228    1.000
    Mo39     Mo       0.41393    0.83716    0.06327    1.000
    S40      S        0.33060    0.92058    0.99442    1.000
    S41      S        0.33060    0.92043    0.13235    1.000
    Mo42     Mo       0.66392    0.83708    0.06320    1.000
    S43      S        0.58059    0.92052    0.99430    1.000
    S44      S        0.58060    0.92035    0.13224    1.000
    Mo45     Mo       0.91396    0.83706    0.06328    1.000
    S46      S        0.83066    0.92039    0.99430    1.000
    S47      S        0.83053    0.92033    0.13222    1.000
    H48      H        0.50244    0.56946    0.29128    1.000
    H49      H        0.58482    0.52334    0.33389    1.000
    H50      H        0.60912    0.54349    0.25799    1.000
    C51      C        0.54149    0.51254    0.29188    1.000
    H52      H        0.40125    0.37588    0.24053    1.000
    H53      H        0.38029    0.35266    0.31561    1.000
    C54      C        0.44697    0.38282    0.28136    1.000
    H55      H        0.52306    0.29161    0.31768    1.000
    H56      H        0.55759    0.32546    0.24925    1.000
    N57      N        0.49037    0.29773    0.27848    1.000
