# CIF file generated by openbabel 3.1.0, see https://openbabel.org
data_I
_chemical_name_common ''
_cell_length_a 13.105
_cell_length_b 13.105
_cell_length_c 23.0122
_cell_angle_alpha 90
_cell_angle_beta 90
_cell_angle_gamma 120
loop_
    _atom_site_label
    _atom_site_type_symbol
    _atom_site_fract_x
    _atom_site_fract_y
    _atom_site_fract_z
    _atom_site_occupancy
    Mo0      Mo       0.16345    0.08153    0.06609    1.000
    S1       S        0.07998    0.16469    0.99706    1.000
    S2       S        0.08007    0.16488    0.13502    1.000
    Mo3      Mo       0.41341    0.08155    0.06612    1.000
    S4       S        0.33006    0.16476    0.99709    1.000
    S5       S        0.33017    0.16500    0.13509    1.000
    Mo6      Mo       0.66336    0.08154    0.06606    1.000
    S7       S        0.57999    0.16477    0.99706    1.000
    S8       S        0.58011    0.16496    0.13507    1.000
    Mo9      Mo       0.91336    0.08146    0.06607    1.000
    S10      S        0.83008    0.16487    0.99712    1.000
    S11      S        0.83003    0.16480    0.13506    1.000
    Mo12     Mo       0.16325    0.33142    0.06594    1.000
    S13      S        0.07993    0.41484    0.99706    1.000
    S14      S        0.08008    0.41477    0.13502    1.000
    Mo15     Mo       0.41334    0.33146    0.06599    1.000
    S16      S        0.32991    0.41465    0.99693    1.000
    S17      S        0.32979    0.41474    0.13483    1.000
    Mo18     Mo       0.66337    0.33145    0.06596    1.000
    S19      S        0.57997    0.41469    0.99692    1.000
    S20      S        0.58018    0.41486    0.13477    1.000
    Mo21     Mo       0.91336    0.33149    0.06610    1.000
    S22      S        0.83012    0.41485    0.99709    1.000
    S23      S        0.82990    0.41479    0.13506    1.000
    Mo24     Mo       0.16337    0.58147    0.06607    1.000
    S25      S        0.08008    0.66490    0.99716    1.000
    S26      S        0.08001    0.66474    0.13510    1.000
    Mo27     Mo       0.41326    0.58142    0.06581    1.000
    S28      S        0.32992    0.66487    0.99701    1.000
    S29      S        0.33019    0.66475    0.13500    1.000
    Mo30     Mo       0.66335    0.58148    0.06579    1.000
    S31      S        0.57999    0.66483    0.99677    1.000
    S32      S        0.58000    0.66504    0.13448    1.000
    Mo33     Mo       0.91337    0.58148    0.06608    1.000
    S34      S        0.83025    0.66493    0.99704    1.000
    S35      S        0.82979    0.66470    0.13504    1.000
    Mo36     Mo       0.16338    0.83150    0.06617    1.000
    S37      S        0.08012    0.91482    0.99717    1.000
    S38      S        0.08003    0.91489    0.13510    1.000
    Mo39     Mo       0.41338    0.83150    0.06604    1.000
    S40      S        0.32995    0.91484    0.99715    1.000
    S41      S        0.33016    0.91485    0.13510    1.000
    Mo42     Mo       0.66338    0.83160    0.06579    1.000
    S43      S        0.57997    0.91499    0.99698    1.000
    S44      S        0.58010    0.91474    0.13498    1.000
    Mo45     Mo       0.91337    0.83151    0.06608    1.000
    S46      S        0.83024    0.91492    0.99701    1.000
    S47      S        0.82980    0.91469    0.13500    1.000
    H48      H        0.55319    0.69466    0.28255    1.000
    H49      H        0.63464    0.66995    0.33674    1.000
    H50      H        0.67872    0.68479    0.26303    1.000
    C51      C        0.60231    0.64919    0.29204    1.000
    H52      H        0.48628    0.49724    0.23968    1.000
    H53      H        0.44935    0.48046    0.31363    1.000
    C54      C        0.52381    0.51513    0.28347    1.000
    H55      H        0.61706    0.45514    0.33188    1.000
    H56      H        0.65148    0.47175    0.26279    1.000
    N57      N        0.58282    0.44447    0.29110    1.000
