# CIF file generated by openbabel 3.1.0, see https://openbabel.org
data_I
_chemical_name_common ''
_cell_length_a 13.105
_cell_length_b 13.105
_cell_length_c 23.0122
_cell_angle_alpha 90
_cell_angle_beta 90
_cell_angle_gamma 120
loop_
    _atom_site_label
    _atom_site_type_symbol
    _atom_site_fract_x
    _atom_site_fract_y
    _atom_site_fract_z
    _atom_site_occupancy
    Mo0      Mo       0.16678    0.08299    0.06677    1.000
    S1       S        0.08339    0.16626    0.99780    1.000
    S2       S        0.08339    0.16629    0.13576    1.000
    Mo3      Mo       0.41680    0.08302    0.06680    1.000
    S4       S        0.33337    0.16621    0.99777    1.000
    S5       S        0.33339    0.16623    0.13579    1.000
    Mo6      Mo       0.66671    0.08296    0.06673    1.000
    S7       S        0.58330    0.16610    0.99768    1.000
    S8       S        0.58348    0.16634    0.13574    1.000
    Mo9      Mo       0.91672    0.08293    0.06676    1.000
    S10      S        0.83341    0.16629    0.99778    1.000
    S11      S        0.83336    0.16627    0.13572    1.000
    Mo12     Mo       0.16667    0.33292    0.06674    1.000
    S13      S        0.08341    0.41628    0.99777    1.000
    S14      S        0.08341    0.41628    0.13573    1.000
    Mo15     Mo       0.41658    0.33278    0.06668    1.000
    S16      S        0.33332    0.41623    0.99776    1.000
    S17      S        0.33333    0.41631    0.13568    1.000
    Mo18     Mo       0.66684    0.33275    0.06650    1.000
    S19      S        0.58334    0.41621    0.99763    1.000
    S20      S        0.58372    0.41620    0.13516    1.000
    Mo21     Mo       0.91678    0.33294    0.06675    1.000
    S22      S        0.83361    0.41635    0.99770    1.000
    S23      S        0.83330    0.41620    0.13570    1.000
    Mo24     Mo       0.16675    0.58294    0.06676    1.000
    S25      S        0.08347    0.66636    0.99781    1.000
    S26      S        0.08343    0.66631    0.13572    1.000
    Mo27     Mo       0.41676    0.58296    0.06670    1.000
    S28      S        0.33340    0.66631    0.99778    1.000
    S29      S        0.33345    0.66629    0.13572    1.000
    Mo30     Mo       0.66682    0.58308    0.06660    1.000
    S31      S        0.58337    0.66632    0.99771    1.000
    S32      S        0.58342    0.66633    0.13567    1.000
    Mo33     Mo       0.91675    0.58296    0.06675    1.000
    S34      S        0.83352    0.66637    0.99775    1.000
    S35      S        0.83332    0.66624    0.13573    1.000
    Mo36     Mo       0.16678    0.83302    0.06678    1.000
    S37      S        0.08343    0.91633    0.99780    1.000
    S38      S        0.08343    0.91635    0.13576    1.000
    Mo39     Mo       0.41675    0.83299    0.06676    1.000
    S40      S        0.33341    0.91634    0.99781    1.000
    S41      S        0.33348    0.91638    0.13577    1.000
    Mo42     Mo       0.66672    0.83297    0.06671    1.000
    S43      S        0.58338    0.91630    0.99776    1.000
    S44      S        0.58341    0.91632    0.13572    1.000
    Mo45     Mo       0.91675    0.83299    0.06676    1.000
    S46      S        0.83342    0.91630    0.99778    1.000
    S47      S        0.83334    0.91627    0.13573    1.000
    H48      H        0.49136    0.54054    0.28318    1.000
    H49      H        0.58908    0.52546    0.33100    1.000
    H50      H        0.61501    0.53628    0.25519    1.000
    C51      C        0.54621    0.49978    0.28850    1.000
    H52      H        0.42206    0.34127    0.24233    1.000
    H53      H        0.40630    0.32929    0.31802    1.000
    C54      C        0.47162    0.36463    0.28310    1.000
    H55      H        0.58042    0.31331    0.32345    1.000
    H56      H        0.60122    0.33094    0.25319    1.000
    N57      N        0.53798    0.30025    0.28470    1.000
