# CIF file generated by openbabel 3.1.0, see https://openbabel.org
data_I
_chemical_name_common ''
_cell_length_a 13.105
_cell_length_b 13.105
_cell_length_c 23.0122
_cell_angle_alpha 90
_cell_angle_beta 90
_cell_angle_gamma 120
loop_
    _atom_site_label
    _atom_site_type_symbol
    _atom_site_fract_x
    _atom_site_fract_y
    _atom_site_fract_z
    _atom_site_occupancy
    H0       H        0.42235    0.57563    0.47556    1.000
    H1       H        0.38341    0.44444    0.43686    1.000
    H2       H        0.38331    0.44387    0.51374    1.000
    C3       C        0.42932    0.49584    0.47538    1.000
    H4       H        0.60405    0.58054    0.51348    1.000
    H5       H        0.60399    0.58056    0.43723    1.000
    C6       C        0.55930    0.52691    0.47535    1.000
    H7       H        0.54145    0.37334    0.43996    1.000
    H8       H        0.54218    0.37384    0.51099    1.000
    N9       N        0.57985    0.42536    0.47536    1.000
