# CIF file generated by openbabel 3.1.0, see https://openbabel.org
data_I
_chemical_name_common ''
_cell_length_a 13.105
_cell_length_b 13.105
_cell_length_c 23.0122
_cell_angle_alpha 90
_cell_angle_beta 90
_cell_angle_gamma 120
loop_
    _atom_site_label
    _atom_site_type_symbol
    _atom_site_fract_x
    _atom_site_fract_y
    _atom_site_fract_z
    _atom_site_occupancy
    Mo0      Mo       0.16752    0.08126    0.06729    1.000
    S1       S        0.08431    0.16454    0.99818    1.000
    S2       S        0.08430    0.16484    0.13613    1.000
    Mo3      Mo       0.41736    0.08124    0.06742    1.000
    S4       S        0.33415    0.16457    0.99837    1.000
    S5       S        0.33394    0.16457    0.13637    1.000
    Mo6      Mo       0.66750    0.08141    0.06734    1.000
    S7       S        0.58405    0.16477    0.99850    1.000
    S8       S        0.58401    0.16442    0.13644    1.000
    Mo9      Mo       0.91766    0.08145    0.06718    1.000
    S10      S        0.83417    0.16479    0.99833    1.000
    S11      S        0.83434    0.16470    0.13621    1.000
    Mo12     Mo       0.16747    0.33130    0.06698    1.000
    S13      S        0.08416    0.41481    0.99821    1.000
    S14      S        0.08443    0.41464    0.13615    1.000
    Mo15     Mo       0.41714    0.33115    0.06730    1.000
    S16      S        0.33443    0.41480    0.99816    1.000
    S17      S        0.33361    0.41459    0.13584    1.000
    Mo18     Mo       0.66750    0.33120    0.06755    1.000
    S19      S        0.58419    0.41475    0.99863    1.000
    S20      S        0.58401    0.41501    0.13634    1.000
    Mo21     Mo       0.91758    0.33141    0.06729    1.000
    S22      S        0.83389    0.41457    0.99845    1.000
    S23      S        0.83430    0.41463    0.13638    1.000
    Mo24     Mo       0.16769    0.58137    0.06728    1.000
    S25      S        0.08402    0.66451    0.99840    1.000
    S26      S        0.08418    0.66452    0.13629    1.000
    Mo27     Mo       0.41782    0.58162    0.06724    1.000
    S28      S        0.33432    0.66476    0.99831    1.000
    S29      S        0.33442    0.66465    0.13632    1.000
    Mo30     Mo       0.66758    0.58192    0.06736    1.000
    S31      S        0.58437    0.66488    0.99815    1.000
    S32      S        0.58458    0.66562    0.13609    1.000
    Mo33     Mo       0.91738    0.58125    0.06739    1.000
    S34      S        0.83413    0.66468    0.99841    1.000
    S35      S        0.83421    0.66494    0.13634    1.000
    Mo36     Mo       0.16740    0.83121    0.06733    1.000
    S37      S        0.08418    0.91457    0.99833    1.000
    S38      S        0.08411    0.91461    0.13627    1.000
    Mo39     Mo       0.41750    0.83130    0.06730    1.000
    S40      S        0.33406    0.91461    0.99840    1.000
    S41      S        0.33400    0.91440    0.13633    1.000
    Mo42     Mo       0.66768    0.83159    0.06703    1.000
    S43      S        0.58412    0.91495    0.99825    1.000
    S44      S        0.58428    0.91464    0.13620    1.000
    Mo45     Mo       0.91757    0.83144    0.06728    1.000
    S46      S        0.83447    0.91487    0.99818    1.000
    S47      S        0.83421    0.91487    0.13613    1.000
    C48      C        0.41234    0.45911    0.28744    1.000
    O49      O        0.45104    0.55451    0.26421    1.000
    O50      O        0.44669    0.37844    0.27573    1.000
    H51      H        0.34388    0.42384    0.32102    1.000
    H52      H        0.50722    0.41011    0.24513    1.000
