# CIF file generated by openbabel 3.1.0, see https://openbabel.org
data_I
_chemical_name_common ''
_cell_length_a 13.105
_cell_length_b 13.105
_cell_length_c 23.0122
_cell_angle_alpha 90
_cell_angle_beta 90
_cell_angle_gamma 120
loop_
    _atom_site_label
    _atom_site_type_symbol
    _atom_site_fract_x
    _atom_site_fract_y
    _atom_site_fract_z
    _atom_site_occupancy
    Mo0      Mo       0.16718    0.08325    0.06725    1.000
    S1       S        0.08365    0.16632    0.99825    1.000
    S2       S        0.08399    0.16669    0.13631    1.000
    Mo3      Mo       0.41731    0.08318    0.06731    1.000
    S4       S        0.33379    0.16612    0.99817    1.000
    S5       S        0.33397    0.16675    0.13614    1.000
    Mo6      Mo       0.66731    0.08321    0.06740    1.000
    S7       S        0.58402    0.16651    0.99839    1.000
    S8       S        0.58396    0.16665    0.13630    1.000
    Mo9      Mo       0.91728    0.08319    0.06736    1.000
    S10      S        0.83389    0.16654    0.99843    1.000
    S11      S        0.83401    0.16659    0.13636    1.000
    Mo12     Mo       0.16702    0.33302    0.06712    1.000
    S13      S        0.08370    0.41651    0.99829    1.000
    S14      S        0.08391    0.41628    0.13634    1.000
    Mo15     Mo       0.41735    0.33303    0.06685    1.000
    S16      S        0.33378    0.41642    0.99796    1.000
    S17      S        0.33416    0.41626    0.13538    1.000
    Mo18     Mo       0.66732    0.33325    0.06729    1.000
    S19      S        0.58423    0.41658    0.99813    1.000
    S20      S        0.58366    0.41646    0.13612    1.000
    Mo21     Mo       0.91728    0.33324    0.06737    1.000
    S22      S        0.83405    0.41668    0.99839    1.000
    S23      S        0.83390    0.41658    0.13634    1.000
    Mo24     Mo       0.16711    0.58295    0.06737    1.000
    S25      S        0.08397    0.66653    0.99846    1.000
    S26      S        0.08396    0.66646    0.13637    1.000
    Mo27     Mo       0.41744    0.58317    0.06702    1.000
    S28      S        0.33386    0.66665    0.99840    1.000
    S29      S        0.33398    0.66613    0.13634    1.000
    Mo30     Mo       0.66722    0.58320    0.06720    1.000
    S31      S        0.58410    0.66667    0.99817    1.000
    S32      S        0.58378    0.66632    0.13619    1.000
    Mo33     Mo       0.91727    0.58325    0.06740    1.000
    S34      S        0.83403    0.66659    0.99837    1.000
    S35      S        0.83371    0.66646    0.13629    1.000
    Mo36     Mo       0.16735    0.83322    0.06741    1.000
    S37      S        0.08394    0.91646    0.99841    1.000
    S38      S        0.08401    0.91672    0.13631    1.000
    Mo39     Mo       0.41736    0.83324    0.06744    1.000
    S40      S        0.33399    0.91645    0.99843    1.000
    S41      S        0.33404    0.91664    0.13637    1.000
    Mo42     Mo       0.66727    0.83312    0.06731    1.000
    S43      S        0.58394    0.91655    0.99844    1.000
    S44      S        0.58406    0.91650    0.13636    1.000
    Mo45     Mo       0.91728    0.83318    0.06737    1.000
    S46      S        0.83398    0.91650    0.99840    1.000
    S47      S        0.83392    0.91648    0.13634    1.000
    C48      C        0.32148    0.42065    0.28139    1.000
    O49      O        0.21604    0.36762    0.27300    1.000
    O50      O        0.39248    0.54056    0.27888    1.000
    H51      H        0.37524    0.38053    0.29195    1.000
    H52      H        0.34331    0.57485    0.26856    1.000
