# CIF file generated by openbabel 3.1.0, see https://openbabel.org
data_I
_chemical_name_common ''
_cell_length_a 13.105
_cell_length_b 13.105
_cell_length_c 23.0122
_cell_angle_alpha 90
_cell_angle_beta 90
_cell_angle_gamma 120
loop_
    _atom_site_label
    _atom_site_type_symbol
    _atom_site_fract_x
    _atom_site_fract_y
    _atom_site_fract_z
    _atom_site_occupancy
    Mo0      Mo       0.16504    0.08200    0.06749    1.000
    S1       S        0.08155    0.16512    0.99845    1.000
    S2       S        0.08188    0.16550    0.13645    1.000
    Mo3      Mo       0.41506    0.08189    0.06757    1.000
    S4       S        0.33170    0.16505    0.99850    1.000
    S5       S        0.33180    0.16550    0.13644    1.000
    Mo6      Mo       0.66503    0.08195    0.06759    1.000
    S7       S        0.58172    0.16524    0.99861    1.000
    S8       S        0.58169    0.16530    0.13653    1.000
    Mo9      Mo       0.91510    0.08197    0.06757    1.000
    S10      S        0.83173    0.16530    0.99866    1.000
    S11      S        0.83178    0.16535    0.13650    1.000
    Mo12     Mo       0.16498    0.33190    0.06731    1.000
    S13      S        0.08171    0.41550    0.99850    1.000
    S14      S        0.08193    0.41527    0.13648    1.000
    Mo15     Mo       0.41509    0.33192    0.06727    1.000
    S16      S        0.33183    0.41549    0.99838    1.000
    S17      S        0.33131    0.41471    0.13612    1.000
    Mo18     Mo       0.66507    0.33193    0.06754    1.000
    S19      S        0.58200    0.41544    0.99852    1.000
    S20      S        0.58156    0.41502    0.13643    1.000
    Mo21     Mo       0.91516    0.33205    0.06756    1.000
    S22      S        0.83177    0.41535    0.99863    1.000
    S23      S        0.83170    0.41523    0.13656    1.000
    Mo24     Mo       0.16520    0.58200    0.06760    1.000
    S25      S        0.08170    0.66528    0.99869    1.000
    S26      S        0.08178    0.66520    0.13658    1.000
    Mo27     Mo       0.41497    0.58193    0.06765    1.000
    S28      S        0.33179    0.66534    0.99866    1.000
    S29      S        0.33174    0.66516    0.13671    1.000
    Mo30     Mo       0.66507    0.58192    0.06763    1.000
    S31      S        0.58177    0.66538    0.99872    1.000
    S32      S        0.58191    0.66556    0.13652    1.000
    Mo33     Mo       0.91507    0.58190    0.06766    1.000
    S34      S        0.83182    0.66532    0.99874    1.000
    S35      S        0.83167    0.66523    0.13664    1.000
    Mo36     Mo       0.16505    0.83192    0.06763    1.000
    S37      S        0.08166    0.91517    0.99866    1.000
    S38      S        0.08180    0.91546    0.13652    1.000
    Mo39     Mo       0.41501    0.83179    0.06767    1.000
    S40      S        0.33175    0.91515    0.99869    1.000
    S41      S        0.33173    0.91525    0.13658    1.000
    Mo42     Mo       0.66514    0.83209    0.06760    1.000
    S43      S        0.58168    0.91526    0.99868    1.000
    S44      S        0.58173    0.91530    0.13659    1.000
    Mo45     Mo       0.91505    0.83197    0.06764    1.000
    S46      S        0.83170    0.91524    0.99864    1.000
    S47      S        0.83177    0.91535    0.13659    1.000
    C48      C        0.46124    0.49398    0.27731    1.000
    O49      O        0.41215    0.55087    0.27113    1.000
    O50      O        0.58081    0.53952    0.27736    1.000
    H51      H        0.41744    0.39830    0.28344    1.000
    H52      H        0.61826    0.62478    0.27100    1.000
