# CIF file generated by openbabel 3.1.0, see https://openbabel.org
data_I
_chemical_name_common ''
_cell_length_a 13.105
_cell_length_b 13.105
_cell_length_c 23.0122
_cell_angle_alpha 90
_cell_angle_beta 90
_cell_angle_gamma 120
loop_
    _atom_site_label
    _atom_site_type_symbol
    _atom_site_fract_x
    _atom_site_fract_y
    _atom_site_fract_z
    _atom_site_occupancy
    Mo0      Mo       0.16604    0.08665    0.06731    1.000
    S1       S        0.08262    0.16975    0.99821    1.000
    S2       S        0.08277    0.17013    0.13618    1.000
    Mo3      Mo       0.41600    0.08667    0.06731    1.000
    S4       S        0.33262    0.16984    0.99833    1.000
    S5       S        0.33269    0.17011    0.13632    1.000
    Mo6      Mo       0.66606    0.08665    0.06728    1.000
    S7       S        0.58271    0.16999    0.99834    1.000
    S8       S        0.58270    0.16992    0.13630    1.000
    Mo9      Mo       0.91608    0.08665    0.06723    1.000
    S10      S        0.83271    0.17000    0.99831    1.000
    S11      S        0.83281    0.17000    0.13621    1.000
    Mo12     Mo       0.16594    0.33658    0.06700    1.000
    S13      S        0.08254    0.41998    0.99818    1.000
    S14      S        0.08284    0.41994    0.13615    1.000
    Mo15     Mo       0.41587    0.33657    0.06722    1.000
    S16      S        0.33267    0.41975    0.99796    1.000
    S17      S        0.33231    0.42006    0.13575    1.000
    Mo18     Mo       0.66606    0.33658    0.06732    1.000
    S19      S        0.58272    0.41991    0.99836    1.000
    S20      S        0.58257    0.41987    0.13626    1.000
    Mo21     Mo       0.91607    0.33668    0.06726    1.000
    S22      S        0.83270    0.42002    0.99835    1.000
    S23      S        0.83278    0.41996    0.13629    1.000
    Mo24     Mo       0.16593    0.58658    0.06720    1.000
    S25      S        0.08258    0.67002    0.99833    1.000
    S26      S        0.08276    0.66994    0.13626    1.000
    Mo27     Mo       0.41591    0.58650    0.06686    1.000
    S28      S        0.33254    0.67005    0.99816    1.000
    S29      S        0.33278    0.66977    0.13605    1.000
    Mo30     Mo       0.66599    0.58661    0.06731    1.000
    S31      S        0.58286    0.66993    0.99814    1.000
    S32      S        0.58238    0.67004    0.13599    1.000
    Mo33     Mo       0.91600    0.58665    0.06735    1.000
    S34      S        0.83270    0.66997    0.99839    1.000
    S35      S        0.83253    0.66993    0.13633    1.000
    Mo36     Mo       0.16599    0.83663    0.06732    1.000
    S37      S        0.08264    0.91992    0.99837    1.000
    S38      S        0.08267    0.92002    0.13630    1.000
    Mo39     Mo       0.41604    0.83667    0.06719    1.000
    S40      S        0.33262    0.92002    0.99833    1.000
    S41      S        0.33271    0.91991    0.13624    1.000
    Mo42     Mo       0.66603    0.83671    0.06712    1.000
    S43      S        0.58272    0.92010    0.99824    1.000
    S44      S        0.58267    0.91989    0.13617    1.000
    Mo45     Mo       0.91598    0.83661    0.06733    1.000
    S46      S        0.83279    0.92000    0.99828    1.000
    S47      S        0.83261    0.92001    0.13619    1.000
    C48      C        0.48450    0.44157    0.28161    1.000
    O49      O        0.37963    0.38002    0.27309    1.000
    O50      O        0.54553    0.56222    0.27982    1.000
    H51      H        0.54553    0.40981    0.29186    1.000
    H52      H        0.49011    0.58927    0.26993    1.000
