# CIF file generated by openbabel 3.1.0, see https://openbabel.org
data_I
_chemical_name_common ''
_cell_length_a 13.105
_cell_length_b 13.105
_cell_length_c 23.0122
_cell_angle_alpha 90
_cell_angle_beta 90
_cell_angle_gamma 120
loop_
    _atom_site_label
    _atom_site_type_symbol
    _atom_site_fract_x
    _atom_site_fract_y
    _atom_site_fract_z
    _atom_site_occupancy
    Mo0      Mo       0.16710    0.08326    0.06759    1.000
    S1       S        0.08373    0.16654    0.99865    1.000
    S2       S        0.08389    0.16662    0.13665    1.000
    Mo3      Mo       0.41703    0.08316    0.06735    1.000
    S4       S        0.33367    0.16664    0.99851    1.000
    S5       S        0.33379    0.16615    0.13642    1.000
    Mo6      Mo       0.66713    0.08321    0.06761    1.000
    S7       S        0.58388    0.16653    0.99853    1.000
    S8       S        0.58356    0.16649    0.13646    1.000
    Mo9      Mo       0.91722    0.08327    0.06766    1.000
    S10      S        0.83385    0.16657    0.99872    1.000
    S11      S        0.83378    0.16656    0.13661    1.000
    Mo12     Mo       0.16697    0.33315    0.06758    1.000
    S13      S        0.08363    0.41649    0.99866    1.000
    S14      S        0.08377    0.41653    0.13661    1.000
    Mo15     Mo       0.41702    0.33312    0.06763    1.000
    S16      S        0.33369    0.41644    0.99856    1.000
    S17      S        0.33365    0.41693    0.13635    1.000
    Mo18     Mo       0.66711    0.33315    0.06749    1.000
    S19      S        0.58370    0.41657    0.99864    1.000
    S20      S        0.58391    0.41636    0.13653    1.000
    Mo21     Mo       0.91708    0.33323    0.06766    1.000
    S22      S        0.83383    0.41657    0.99864    1.000
    S23      S        0.83361    0.41646    0.13658    1.000
    Mo24     Mo       0.16702    0.58316    0.06760    1.000
    S25      S        0.08360    0.66646    0.99869    1.000
    S26      S        0.08376    0.66660    0.13655    1.000
    Mo27     Mo       0.41714    0.58331    0.06740    1.000
    S28      S        0.33363    0.66658    0.99856    1.000
    S29      S        0.33383    0.66658    0.13648    1.000
    Mo30     Mo       0.66707    0.58320    0.06767    1.000
    S31      S        0.58394    0.66661    0.99863    1.000
    S32      S        0.58361    0.66650    0.13658    1.000
    Mo33     Mo       0.91699    0.58318    0.06766    1.000
    S34      S        0.83370    0.66653    0.99870    1.000
    S35      S        0.83371    0.66659    0.13662    1.000
    Mo36     Mo       0.16703    0.83324    0.06755    1.000
    S37      S        0.08365    0.91658    0.99862    1.000
    S38      S        0.08378    0.91662    0.13655    1.000
    Mo39     Mo       0.41707    0.83327    0.06752    1.000
    S40      S        0.33362    0.91641    0.99849    1.000
    S41      S        0.33377    0.91667    0.13643    1.000
    Mo42     Mo       0.66711    0.83324    0.06763    1.000
    S43      S        0.58386    0.91659    0.99865    1.000
    S44      S        0.58365    0.91654    0.13654    1.000
    Mo45     Mo       0.91707    0.83322    0.06762    1.000
    S46      S        0.83377    0.91661    0.99870    1.000
    S47      S        0.83382    0.91656    0.13660    1.000
    C48      C        0.42129    0.34421    0.27652    1.000
    O49      O        0.31556    0.28531    0.26993    1.000
    O50      O        0.48432    0.46482    0.27831    1.000
    H51      H        0.48170    0.30977    0.28163    1.000
    H52      H        0.42904    0.49397    0.27311    1.000
