# CIF file generated by openbabel 3.1.0, see https://openbabel.org
data_I
_chemical_name_common ''
_cell_length_a 13.105
_cell_length_b 13.105
_cell_length_c 23.0122
_cell_angle_alpha 90
_cell_angle_beta 90
_cell_angle_gamma 120
loop_
    _atom_site_label
    _atom_site_type_symbol
    _atom_site_fract_x
    _atom_site_fract_y
    _atom_site_fract_z
    _atom_site_occupancy
    Mo0      Mo       0.16674    0.08479    0.06704    1.000
    S1       S        0.08338    0.16779    0.99790    1.000
    S2       S        0.08357    0.16841    0.13583    1.000
    Mo3      Mo       0.41682    0.08481    0.06709    1.000
    S4       S        0.33341    0.16803    0.99813    1.000
    S5       S        0.33345    0.16831    0.13605    1.000
    Mo6      Mo       0.66674    0.08477    0.06701    1.000
    S7       S        0.58332    0.16806    0.99809    1.000
    S8       S        0.58344    0.16813    0.13604    1.000
    Mo9      Mo       0.91679    0.08473    0.06693    1.000
    S10      S        0.83335    0.16802    0.99801    1.000
    S11      S        0.83354    0.16812    0.13589    1.000
    Mo12     Mo       0.16676    0.33478    0.06660    1.000
    S13      S        0.08323    0.41807    0.99781    1.000
    S14      S        0.08360    0.41800    0.13576    1.000
    Mo15     Mo       0.41661    0.33499    0.06689    1.000
    S16      S        0.33343    0.41804    0.99757    1.000
    S17      S        0.33299    0.41841    0.13543    1.000
    Mo18     Mo       0.66673    0.33473    0.06699    1.000
    S19      S        0.58340    0.41807    0.99792    1.000
    S20      S        0.58351    0.41844    0.13577    1.000
    Mo21     Mo       0.91676    0.33476    0.06692    1.000
    S22      S        0.83330    0.41803    0.99803    1.000
    S23      S        0.83339    0.41801    0.13597    1.000
    Mo24     Mo       0.16677    0.58470    0.06685    1.000
    S25      S        0.08339    0.66816    0.99805    1.000
    S26      S        0.08348    0.66795    0.13590    1.000
    Mo27     Mo       0.41664    0.58470    0.06661    1.000
    S28      S        0.33332    0.66826    0.99780    1.000
    S29      S        0.33348    0.66790    0.13575    1.000
    Mo30     Mo       0.66679    0.58489    0.06681    1.000
    S31      S        0.58358    0.66821    0.99784    1.000
    S32      S        0.58304    0.66775    0.13583    1.000
    Mo33     Mo       0.91670    0.58469    0.06700    1.000
    S34      S        0.83363    0.66819    0.99799    1.000
    S35      S        0.83328    0.66801    0.13593    1.000
    Mo36     Mo       0.16678    0.83478    0.06703    1.000
    S37      S        0.08347    0.91813    0.99810    1.000
    S38      S        0.08346    0.91812    0.13598    1.000
    Mo39     Mo       0.41676    0.83473    0.06691    1.000
    S40      S        0.33344    0.91820    0.99807    1.000
    S41      S        0.33349    0.91801    0.13596    1.000
    Mo42     Mo       0.66672    0.83467    0.06699    1.000
    S43      S        0.58355    0.91815    0.99804    1.000
    S44      S        0.58333    0.91799    0.13593    1.000
    Mo45     Mo       0.91680    0.83476    0.06702    1.000
    S46      S        0.83340    0.91799    0.99805    1.000
    S47      S        0.83347    0.91811    0.13594    1.000
    C48      C        0.41508    0.32426    0.28172    1.000
    O49      O        0.37819    0.39090    0.27186    1.000
    O50      O        0.53138    0.35712    0.28809    1.000
    H51      H        0.36086    0.22853    0.28678    1.000
    H52      H        0.57819    0.44270    0.28266    1.000
