# CIF file generated by openbabel 3.1.0, see https://openbabel.org
data_I
_chemical_name_common ''
_cell_length_a 13.105
_cell_length_b 13.105
_cell_length_c 23.0122
_cell_angle_alpha 90
_cell_angle_beta 90
_cell_angle_gamma 120
loop_
    _atom_site_label
    _atom_site_type_symbol
    _atom_site_fract_x
    _atom_site_fract_y
    _atom_site_fract_z
    _atom_site_occupancy
    Mo0      Mo       0.16222    0.08456    0.06721    1.000
    S1       S        0.07870    0.16776    0.99826    1.000
    S2       S        0.07902    0.16803    0.13621    1.000
    Mo3      Mo       0.41221    0.08449    0.06717    1.000
    S4       S        0.32879    0.16768    0.99813    1.000
    S5       S        0.32898    0.16802    0.13610    1.000
    Mo6      Mo       0.66226    0.08457    0.06730    1.000
    S7       S        0.57897    0.16783    0.99828    1.000
    S8       S        0.57883    0.16789    0.13617    1.000
    Mo9      Mo       0.91224    0.08459    0.06735    1.000
    S10      S        0.82890    0.16790    0.99836    1.000
    S11      S        0.82896    0.16801    0.13629    1.000
    Mo12     Mo       0.16209    0.33449    0.06712    1.000
    S13      S        0.07882    0.41796    0.99824    1.000
    S14      S        0.07909    0.41793    0.13629    1.000
    Mo15     Mo       0.41231    0.33447    0.06693    1.000
    S16      S        0.32881    0.41796    0.99811    1.000
    S17      S        0.32857    0.41706    0.13579    1.000
    Mo18     Mo       0.66230    0.33454    0.06722    1.000
    S19      S        0.57928    0.41807    0.99818    1.000
    S20      S        0.57866    0.41750    0.13618    1.000
    Mo21     Mo       0.91237    0.33464    0.06730    1.000
    S22      S        0.82905    0.41797    0.99834    1.000
    S23      S        0.82891    0.41784    0.13626    1.000
    Mo24     Mo       0.16237    0.58458    0.06728    1.000
    S25      S        0.07889    0.66784    0.99836    1.000
    S26      S        0.07902    0.66784    0.13627    1.000
    Mo27     Mo       0.41176    0.58434    0.06735    1.000
    S28      S        0.32886    0.66778    0.99822    1.000
    S29      S        0.32885    0.66810    0.13624    1.000
    Mo30     Mo       0.66231    0.58431    0.06737    1.000
    S31      S        0.57892    0.66795    0.99863    1.000
    S32      S        0.57866    0.66770    0.13629    1.000
    Mo33     Mo       0.91229    0.58455    0.06734    1.000
    S34      S        0.82892    0.66791    0.99842    1.000
    S35      S        0.82894    0.66781    0.13633    1.000
    Mo36     Mo       0.16221    0.83451    0.06728    1.000
    S37      S        0.07878    0.91780    0.99833    1.000
    S38      S        0.07904    0.91798    0.13625    1.000
    Mo39     Mo       0.41220    0.83442    0.06716    1.000
    S40      S        0.32878    0.91774    0.99825    1.000
    S41      S        0.32893    0.91782    0.13617    1.000
    Mo42     Mo       0.66237    0.83484    0.06748    1.000
    S43      S        0.57911    0.91787    0.99835    1.000
    S44      S        0.57873    0.91798    0.13630    1.000
    Mo45     Mo       0.91224    0.83455    0.06737    1.000
    S46      S        0.82884    0.91786    0.99846    1.000
    S47      S        0.82907    0.91802    0.13636    1.000
    C48      C        0.38165    0.49344    0.28820    1.000
    O49      O        0.32338    0.53097    0.26555    1.000
    O50      O        0.49585    0.52733    0.27477    1.000
    H51      H        0.35060    0.42645    0.32249    1.000
    H52      H        0.52260    0.58657    0.24356    1.000
