# CIF file generated by openbabel 3.1.0, see https://openbabel.org
data_I
_chemical_name_common ''
_cell_length_a 13.105
_cell_length_b 13.105
_cell_length_c 23.0122
_cell_angle_alpha 90
_cell_angle_beta 90
_cell_angle_gamma 120
loop_
    _atom_site_label
    _atom_site_type_symbol
    _atom_site_fract_x
    _atom_site_fract_y
    _atom_site_fract_z
    _atom_site_occupancy
    Mo0      Mo       0.16642    0.08234    0.06720    1.000
    S1       S        0.08277    0.16538    0.99823    1.000
    S2       S        0.08330    0.16589    0.13622    1.000
    Mo3      Mo       0.41646    0.08231    0.06724    1.000
    S4       S        0.33299    0.16535    0.99811    1.000
    S5       S        0.33321    0.16594    0.13609    1.000
    Mo6      Mo       0.66646    0.08232    0.06740    1.000
    S7       S        0.58319    0.16559    0.99833    1.000
    S8       S        0.58305    0.16573    0.13626    1.000
    Mo9      Mo       0.91640    0.08225    0.06740    1.000
    S10      S        0.83309    0.16557    0.99843    1.000
    S11      S        0.83318    0.16573    0.13636    1.000
    Mo12     Mo       0.16616    0.33224    0.06700    1.000
    S13      S        0.08288    0.41578    0.99824    1.000
    S14      S        0.08318    0.41554    0.13631    1.000
    Mo15     Mo       0.41653    0.33225    0.06682    1.000
    S16      S        0.33299    0.41578    0.99797    1.000
    S17      S        0.33287    0.41502    0.13537    1.000
    Mo18     Mo       0.66644    0.33232    0.06725    1.000
    S19      S        0.58347    0.41586    0.99814    1.000
    S20      S        0.58276    0.41534    0.13616    1.000
    Mo21     Mo       0.91649    0.33233    0.06734    1.000
    S22      S        0.83322    0.41574    0.99839    1.000
    S23      S        0.83302    0.41553    0.13633    1.000
    Mo24     Mo       0.16646    0.58225    0.06739    1.000
    S25      S        0.08311    0.66560    0.99845    1.000
    S26      S        0.08318    0.66560    0.13638    1.000
    Mo27     Mo       0.41623    0.58232    0.06720    1.000
    S28      S        0.33303    0.66576    0.99832    1.000
    S29      S        0.33307    0.66559    0.13637    1.000
    Mo30     Mo       0.66637    0.58216    0.06737    1.000
    S31      S        0.58320    0.66583    0.99848    1.000
    S32      S        0.58274    0.66535    0.13644    1.000
    Mo33     Mo       0.91645    0.58228    0.06743    1.000
    S34      S        0.83308    0.66560    0.99846    1.000
    S35      S        0.83299    0.66548    0.13639    1.000
    Mo36     Mo       0.16645    0.83228    0.06739    1.000
    S37      S        0.08301    0.91550    0.99839    1.000
    S38      S        0.08328    0.91583    0.13631    1.000
    Mo39     Mo       0.41643    0.83225    0.06736    1.000
    S40      S        0.33305    0.91553    0.99838    1.000
    S41      S        0.33318    0.91574    0.13631    1.000
    Mo42     Mo       0.66647    0.83237    0.06752    1.000
    S43      S        0.58322    0.91562    0.99847    1.000
    S44      S        0.58304    0.91569    0.13642    1.000
    Mo45     Mo       0.91644    0.83223    0.06744    1.000
    S46      S        0.83306    0.91551    0.99851    1.000
    S47      S        0.83323    0.91566    0.13644    1.000
    C48      C        0.33630    0.43049    0.28154    1.000
    O49      O        0.28341    0.48285    0.27258    1.000
    O50      O        0.45610    0.47885    0.27847    1.000
    H51      H        0.29615    0.33710    0.29313    1.000
    H52      H        0.49055    0.56188    0.26723    1.000
