# CIF file generated by openbabel 3.1.0, see https://openbabel.org
data_I
_chemical_name_common ''
_cell_length_a 13.105
_cell_length_b 13.105
_cell_length_c 23.0122
_cell_angle_alpha 90
_cell_angle_beta 90
_cell_angle_gamma 120
loop_
    _atom_site_label
    _atom_site_type_symbol
    _atom_site_fract_x
    _atom_site_fract_y
    _atom_site_fract_z
    _atom_site_occupancy
    Mo0      Mo       0.16388    0.07768    0.06953    1.000
    S1       S        0.08026    0.16068    0.00048    1.000
    S2       S        0.08025    0.16082    0.13850    1.000
    Mo3      Mo       0.41407    0.07771    0.06949    1.000
    S4       S        0.33050    0.16066    0.00047    1.000
    S5       S        0.33067    0.16083    0.13849    1.000
    Mo6      Mo       0.66394    0.07780    0.06941    1.000
    S7       S        0.58074    0.16125    0.00050    1.000
    S8       S        0.58087    0.16127    0.13839    1.000
    Mo9      Mo       0.91373    0.07772    0.06949    1.000
    S10      S        0.83061    0.16127    0.00051    1.000
    S11      S        0.83048    0.16125    0.13840    1.000
    Mo12     Mo       0.16324    0.32721    0.06933    1.000
    S13      S        0.08046    0.41100    0.00041    1.000
    S14      S        0.08062    0.41119    0.13841    1.000
    Mo15     Mo       0.41407    0.32720    0.06931    1.000
    S16      S        0.33041    0.41074    0.00059    1.000
    S17      S        0.33026    0.41036    0.13772    1.000
    Mo18     Mo       0.66413    0.32798    0.06942    1.000
    S19      S        0.58063    0.41099    0.00038    1.000
    S20      S        0.58068    0.41120    0.13837    1.000
    Mo21     Mo       0.91395    0.32798    0.06944    1.000
    S22      S        0.83080    0.41147    0.00046    1.000
    S23      S        0.83078    0.41150    0.13838    1.000
    Mo24     Mo       0.16418    0.57782    0.06933    1.000
    S25      S        0.08084    0.66133    0.00048    1.000
    S26      S        0.08086    0.66118    0.13835    1.000
    Mo27     Mo       0.41406    0.57805    0.06951    1.000
    S28      S        0.33076    0.66103    0.00035    1.000
    S29      S        0.33058    0.66119    0.13837    1.000
    Mo30     Mo       0.66372    0.57782    0.06930    1.000
    S31      S        0.58033    0.66104    0.00033    1.000
    S32      S        0.58068    0.66118    0.13836    1.000
    Mo33     Mo       0.91406    0.57805    0.06941    1.000
    S34      S        0.83059    0.66134    0.00046    1.000
    S35      S        0.83038    0.66118    0.13833    1.000
    Mo36     Mo       0.16409    0.82788    0.06948    1.000
    S37      S        0.08062    0.91116    0.00057    1.000
    S38      S        0.08052    0.91100    0.13846    1.000
    Mo39     Mo       0.41391    0.82762    0.06937    1.000
    S40      S        0.33070    0.91115    0.00049    1.000
    S41      S        0.33081    0.91101    0.13842    1.000
    Mo42     Mo       0.66378    0.82762    0.06935    1.000
    S43      S        0.58060    0.91115    0.00041    1.000
    S44      S        0.58053    0.91098    0.13835    1.000
    Mo45     Mo       0.91386    0.82789    0.06946    1.000
    S46      S        0.83053    0.91118    0.00047    1.000
    S47      S        0.83027    0.91100    0.13841    1.000
    C48      C        0.38234    0.52177    0.30021    1.000
    O49      O        0.42451    0.60234    0.26549    1.000
    O50      O        0.32410    0.40480    0.28647    1.000
    H51      H        0.38527    0.53200    0.34757    1.000
    H52      H        0.32228    0.39752    0.24378    1.000
