# CIF file generated by openbabel 3.1.0, see https://openbabel.org
data_I
_chemical_name_common ''
_cell_length_a 13.105
_cell_length_b 13.105
_cell_length_c 23.0122
_cell_angle_alpha 90
_cell_angle_beta 90
_cell_angle_gamma 120
loop_
    _atom_site_label
    _atom_site_type_symbol
    _atom_site_fract_x
    _atom_site_fract_y
    _atom_site_fract_z
    _atom_site_occupancy
    Mo0      Mo       0.16583    0.08248    0.06920    1.000
    S1       S        0.08247    0.16571    0.00012    1.000
    S2       S        0.08260    0.16596    0.13809    1.000
    Mo3      Mo       0.41586    0.08254    0.06938    1.000
    S4       S        0.33260    0.16588    0.00031    1.000
    S5       S        0.33231    0.16588    0.13826    1.000
    Mo6      Mo       0.66583    0.08250    0.06938    1.000
    S7       S        0.58259    0.16596    0.00047    1.000
    S8       S        0.58244    0.16566    0.13844    1.000
    Mo9      Mo       0.91590    0.08253    0.06919    1.000
    S10      S        0.83239    0.16580    0.00030    1.000
    S11      S        0.83271    0.16583    0.13825    1.000
    Mo12     Mo       0.16580    0.33244    0.06898    1.000
    S13      S        0.08243    0.41594    0.00022    1.000
    S14      S        0.08269    0.41577    0.13815    1.000
    Mo15     Mo       0.41543    0.33247    0.06925    1.000
    S16      S        0.33262    0.41596    0.00014    1.000
    S17      S        0.33172    0.41536    0.13799    1.000
    Mo18     Mo       0.66596    0.33239    0.06955    1.000
    S19      S        0.58261    0.41590    0.00059    1.000
    S20      S        0.58229    0.41617    0.13833    1.000
    Mo21     Mo       0.91586    0.33246    0.06928    1.000
    S22      S        0.83236    0.41577    0.00045    1.000
    S23      S        0.83273    0.41571    0.13840    1.000
    Mo24     Mo       0.16601    0.58254    0.06930    1.000
    S25      S        0.08247    0.66574    0.00038    1.000
    S26      S        0.08265    0.66578    0.13834    1.000
    Mo27     Mo       0.41585    0.58243    0.06940    1.000
    S28      S        0.33266    0.66581    0.00037    1.000
    S29      S        0.33259    0.66568    0.13840    1.000
    Mo30     Mo       0.66601    0.58301    0.06933    1.000
    S31      S        0.58253    0.66594    0.00030    1.000
    S32      S        0.58275    0.66647    0.13819    1.000
    Mo33     Mo       0.91583    0.58243    0.06942    1.000
    S34      S        0.83253    0.66581    0.00039    1.000
    S35      S        0.83263    0.66604    0.13838    1.000
    Mo36     Mo       0.16577    0.83244    0.06935    1.000
    S37      S        0.08255    0.91576    0.00029    1.000
    S38      S        0.08260    0.91598    0.13825    1.000
    Mo39     Mo       0.41582    0.83238    0.06937    1.000
    S40      S        0.33243    0.91577    0.00043    1.000
    S41      S        0.33241    0.91574    0.13833    1.000
    Mo42     Mo       0.66598    0.83269    0.06919    1.000
    S43      S        0.58244    0.91595    0.00034    1.000
    S44      S        0.58255    0.91577    0.13832    1.000
    Mo45     Mo       0.91596    0.83256    0.06931    1.000
    S46      S        0.83268    0.91583    0.00026    1.000
    S47      S        0.83265    0.91602    0.13822    1.000
    C48      C        0.47523    0.52069    0.30017    1.000
    O49      O        0.42819    0.54885    0.26307    1.000
    O50      O        0.55142    0.47997    0.29023    1.000
    H51      H        0.46295    0.52375    0.34712    1.000
    H52      H        0.56103    0.47554    0.24806    1.000
