# CIF file generated by openbabel 3.1.0, see https://openbabel.org
data_I
_chemical_name_common ''
_cell_length_a 13.105
_cell_length_b 13.105
_cell_length_c 23.0122
_cell_angle_alpha 90
_cell_angle_beta 90
_cell_angle_gamma 120
loop_
    _atom_site_label
    _atom_site_type_symbol
    _atom_site_fract_x
    _atom_site_fract_y
    _atom_site_fract_z
    _atom_site_occupancy
    Mo0      Mo       0.16600    0.08279    0.06994    1.000
    S1       S        0.08279    0.16575    0.00069    1.000
    S2       S        0.08280    0.16644    0.13869    1.000
    Mo3      Mo       0.41654    0.08279    0.06995    1.000
    S4       S        0.33292    0.16609    0.00109    1.000
    S5       S        0.33317    0.16660    0.13885    1.000
    Mo6      Mo       0.66626    0.08267    0.06973    1.000
    S7       S        0.58272    0.16576    0.00070    1.000
    S8       S        0.58338    0.16642    0.13870    1.000
    Mo9      Mo       0.91616    0.08267    0.06972    1.000
    S10      S        0.83283    0.16592    0.00071    1.000
    S11      S        0.83296    0.16615    0.13863    1.000
    Mo12     Mo       0.16616    0.33274    0.06938    1.000
    S13      S        0.08292    0.41631    0.00058    1.000
    S14      S        0.08292    0.41600    0.13853    1.000
    Mo15     Mo       0.41651    0.33326    0.06972    1.000
    S16      S        0.33316    0.41633    0.00061    1.000
    S17      S        0.33218    0.41603    0.13840    1.000
    Mo18     Mo       0.66633    0.33274    0.06940    1.000
    S19      S        0.58294    0.41633    0.00062    1.000
    S20      S        0.58359    0.41604    0.13842    1.000
    Mo21     Mo       0.91625    0.33275    0.06957    1.000
    S22      S        0.83312    0.41630    0.00059    1.000
    S23      S        0.83284    0.41600    0.13854    1.000
    Mo24     Mo       0.16627    0.58285    0.06971    1.000
    S25      S        0.08307    0.66639    0.00078    1.000
    S26      S        0.08295    0.66614    0.13874    1.000
    Mo27     Mo       0.41637    0.58285    0.06979    1.000
    S28      S        0.33300    0.66620    0.00084    1.000
    S29      S        0.33288    0.66600    0.13879    1.000
    Mo30     Mo       0.66624    0.58285    0.06980    1.000
    S31      S        0.58294    0.66612    0.00075    1.000
    S32      S        0.58297    0.66621    0.13879    1.000
    Mo33     Mo       0.91633    0.58285    0.06972    1.000
    S34      S        0.83296    0.66620    0.00085    1.000
    S35      S        0.83288    0.66601    0.13879    1.000
    Mo36     Mo       0.16634    0.83293    0.06985    1.000
    S37      S        0.08297    0.91625    0.00093    1.000
    S38      S        0.08284    0.91606    0.13887    1.000
    Mo39     Mo       0.41627    0.83276    0.06987    1.000
    S40      S        0.33305    0.91626    0.00093    1.000
    S41      S        0.33299    0.91606    0.13887    1.000
    Mo42     Mo       0.66617    0.83258    0.06974    1.000
    S43      S        0.58280    0.91594    0.00081    1.000
    S44      S        0.58303    0.91602    0.13878    1.000
    Mo45     Mo       0.91625    0.83276    0.06987    1.000
    S46      S        0.83289    0.91593    0.00081    1.000
    S47      S        0.83274    0.91602    0.13878    1.000
    C48      C        0.45325    0.40885    0.29609    1.000
    O49      O        0.49214    0.48530    0.25920    1.000
    O50      O        0.39392    0.29030    0.28590    1.000
    H51      H        0.46041    0.42438    0.34310    1.000
    H52      H        0.38724    0.27582    0.24378    1.000
