# CIF file generated by openbabel 3.1.0, see https://openbabel.org
data_I
_chemical_name_common ''
_cell_length_a 13.105
_cell_length_b 13.105
_cell_length_c 23.0122
_cell_angle_alpha 90
_cell_angle_beta 90
_cell_angle_gamma 120
loop_
    _atom_site_label
    _atom_site_type_symbol
    _atom_site_fract_x
    _atom_site_fract_y
    _atom_site_fract_z
    _atom_site_occupancy
    Mo0      Mo       0.16314    0.08502    0.06961    1.000
    S1       S        0.07977    0.16826    0.00061    1.000
    S2       S        0.07976    0.16841    0.13858    1.000
    Mo3      Mo       0.41304    0.08513    0.06941    1.000
    S4       S        0.32955    0.16831    0.00054    1.000
    S5       S        0.32967    0.16810    0.13854    1.000
    Mo6      Mo       0.66312    0.08505    0.06941    1.000
    S7       S        0.57974    0.16832    0.00042    1.000
    S8       S        0.57982    0.16843    0.13837    1.000
    Mo9      Mo       0.91312    0.08511    0.06952    1.000
    S10      S        0.82986    0.16840    0.00049    1.000
    S11      S        0.82979    0.16848    0.13842    1.000
    Mo12     Mo       0.16308    0.33502    0.06949    1.000
    S13      S        0.07979    0.41831    0.00045    1.000
    S14      S        0.07977    0.41846    0.13839    1.000
    Mo15     Mo       0.41248    0.33469    0.06960    1.000
    S16      S        0.32954    0.41799    0.00043    1.000
    S17      S        0.32958    0.41854    0.13842    1.000
    Mo18     Mo       0.66341    0.33488    0.06927    1.000
    S19      S        0.57951    0.41822    0.00055    1.000
    S20      S        0.58008    0.41852    0.13782    1.000
    Mo21     Mo       0.91316    0.33510    0.06940    1.000
    S22      S        0.82991    0.41844    0.00034    1.000
    S23      S        0.82990    0.41851    0.13831    1.000
    Mo24     Mo       0.16305    0.58503    0.06938    1.000
    S25      S        0.07987    0.66855    0.00045    1.000
    S26      S        0.07972    0.66829    0.13836    1.000
    Mo27     Mo       0.41296    0.58483    0.06924    1.000
    S28      S        0.32965    0.66836    0.00037    1.000
    S29      S        0.32976    0.66825    0.13828    1.000
    Mo30     Mo       0.66333    0.58551    0.06923    1.000
    S31      S        0.57976    0.66846    0.00031    1.000
    S32      S        0.57959    0.66830    0.13827    1.000
    Mo33     Mo       0.91311    0.58513    0.06934    1.000
    S34      S        0.82995    0.66869    0.00037    1.000
    S35      S        0.82973    0.66842    0.13834    1.000
    Mo36     Mo       0.16308    0.83507    0.06950    1.000
    S37      S        0.07982    0.91850    0.00059    1.000
    S38      S        0.07976    0.91834    0.13854    1.000
    Mo39     Mo       0.41309    0.83505    0.06938    1.000
    S40      S        0.32967    0.91840    0.00048    1.000
    S41      S        0.32983    0.91843    0.13841    1.000
    Mo42     Mo       0.66304    0.83508    0.06937    1.000
    S43      S        0.57976    0.91842    0.00042    1.000
    S44      S        0.57970    0.91833    0.13834    1.000
    Mo45     Mo       0.91313    0.83517    0.06949    1.000
    S46      S        0.82983    0.91854    0.00050    1.000
    S47      S        0.82962    0.91839    0.13843    1.000
    C48      C        0.45044    0.38218    0.30021    1.000
    O49      O        0.37250    0.31676    0.26732    1.000
    O50      O        0.56621    0.45165    0.28563    1.000
    H51      H        0.43837    0.39459    0.34627    1.000
    H52      H        0.57519    0.43956    0.24407    1.000
