# CIF file generated by openbabel 3.1.0, see https://openbabel.org
data_I
_chemical_name_common ''
_cell_length_a 13.105
_cell_length_b 13.105
_cell_length_c 23.0122
_cell_angle_alpha 90
_cell_angle_beta 90
_cell_angle_gamma 120
loop_
    _atom_site_label
    _atom_site_type_symbol
    _atom_site_fract_x
    _atom_site_fract_y
    _atom_site_fract_z
    _atom_site_occupancy
    Mo0      Mo       0.16811    0.08642    0.06929    1.000
    S1       S        0.08472    0.16952    0.00018    1.000
    S2       S        0.08450    0.16949    0.13821    1.000
    Mo3      Mo       0.41793    0.08626    0.06911    1.000
    S4       S        0.33461    0.16952    0.00018    1.000
    S5       S        0.33481    0.16950    0.13822    1.000
    Mo6      Mo       0.66803    0.08626    0.06912    1.000
    S7       S        0.58468    0.16958    0.00019    1.000
    S8       S        0.58462    0.16950    0.13810    1.000
    Mo9      Mo       0.91813    0.08626    0.06911    1.000
    S10      S        0.83471    0.16958    0.00020    1.000
    S11      S        0.83470    0.16950    0.13810    1.000
    Mo12     Mo       0.16766    0.33602    0.06913    1.000
    S13      S        0.08452    0.41936    0.00014    1.000
    S14      S        0.08469    0.41962    0.13810    1.000
    Mo15     Mo       0.41818    0.33602    0.06913    1.000
    S16      S        0.33453    0.41924    0.00005    1.000
    S17      S        0.33512    0.42042    0.13741    1.000
    Mo18     Mo       0.66803    0.33621    0.06916    1.000
    S19      S        0.58466    0.41936    0.00013    1.000
    S20      S        0.58474    0.41962    0.13810    1.000
    Mo21     Mo       0.91799    0.33621    0.06916    1.000
    S22      S        0.83461    0.41941    0.00017    1.000
    S23      S        0.83470    0.41959    0.13807    1.000
    Mo24     Mo       0.16799    0.58618    0.06899    1.000
    S25      S        0.08461    0.66958    0.00010    1.000
    S26      S        0.08470    0.66950    0.13799    1.000
    Mo27     Mo       0.41828    0.58675    0.06858    1.000
    S28      S        0.33454    0.66982    0.99988    1.000
    S29      S        0.33478    0.66957    0.13784    1.000
    Mo30     Mo       0.66800    0.58618    0.06898    1.000
    S31      S        0.58509    0.66982    0.99988    1.000
    S32      S        0.58461    0.66957    0.13784    1.000
    Mo33     Mo       0.91799    0.58617    0.06907    1.000
    S34      S        0.83479    0.66959    0.00010    1.000
    S35      S        0.83461    0.66950    0.13799    1.000
    Mo36     Mo       0.16801    0.83626    0.06910    1.000
    S37      S        0.08478    0.91975    0.00024    1.000
    S38      S        0.08469    0.91957    0.13814    1.000
    Mo39     Mo       0.41801    0.83632    0.06900    1.000
    S40      S        0.33463    0.91967    0.00012    1.000
    S41      S        0.33467    0.91952    0.13804    1.000
    Mo42     Mo       0.66813    0.83632    0.06900    1.000
    S43      S        0.58477    0.91973    0.00010    1.000
    S44      S        0.58467    0.91952    0.13798    1.000
    Mo45     Mo       0.91805    0.83626    0.06910    1.000
    S46      S        0.83485    0.91967    0.00012    1.000
    S47      S        0.83467    0.91952    0.13804    1.000
    C48      C        0.29576    0.34549    0.30406    1.000
    O49      O        0.25475    0.26274    0.27062    1.000
    O50      O        0.35403    0.46164    0.28840    1.000
    H51      H        0.29166    0.33850    0.35157    1.000
    H52      H        0.35656    0.46566    0.24566    1.000
