# CIF file generated by openbabel 3.1.0, see https://openbabel.org
data_I
_chemical_name_common ''
_cell_length_a 13.105
_cell_length_b 13.105
_cell_length_c 23.0122
_cell_angle_alpha 90
_cell_angle_beta 90
_cell_angle_gamma 120
loop_
    _atom_site_label
    _atom_site_type_symbol
    _atom_site_fract_x
    _atom_site_fract_y
    _atom_site_fract_z
    _atom_site_occupancy
    Mo0      Mo       0.17157    0.09356    0.07000    1.000
    S1       S        0.08837    0.17651    0.00073    1.000
    S2       S        0.08820    0.17709    0.13870    1.000
    Mo3      Mo       0.42189    0.09356    0.07000    1.000
    S4       S        0.33842    0.17693    0.00112    1.000
    S5       S        0.33864    0.17738    0.13897    1.000
    Mo6      Mo       0.67167    0.09343    0.06968    1.000
    S7       S        0.58803    0.17651    0.00073    1.000
    S8       S        0.58878    0.17708    0.13870    1.000
    Mo9      Mo       0.92164    0.09343    0.06968    1.000
    S10      S        0.83830    0.17672    0.00069    1.000
    S11      S        0.83838    0.17686    0.13857    1.000
    Mo12     Mo       0.17157    0.34344    0.06944    1.000
    S13      S        0.08839    0.42704    0.00063    1.000
    S14      S        0.08833    0.42669    0.13857    1.000
    Mo15     Mo       0.42193    0.34398    0.06978    1.000
    S16      S        0.33858    0.42709    0.00067    1.000
    S17      S        0.33762    0.42680    0.13847    1.000
    Mo18     Mo       0.67176    0.34344    0.06945    1.000
    S19      S        0.58839    0.42709    0.00068    1.000
    S20      S        0.58904    0.42680    0.13849    1.000
    Mo21     Mo       0.92170    0.34351    0.06959    1.000
    S22      S        0.83852    0.42703    0.00063    1.000
    S23      S        0.83826    0.42669    0.13857    1.000
    Mo24     Mo       0.17176    0.59354    0.06977    1.000
    S25      S        0.08849    0.67709    0.00092    1.000
    S26      S        0.08828    0.67668    0.13880    1.000
    Mo27     Mo       0.42186    0.59368    0.06983    1.000
    S28      S        0.33846    0.67698    0.00087    1.000
    S29      S        0.33840    0.67681    0.13884    1.000
    Mo30     Mo       0.67170    0.59368    0.06983    1.000
    S31      S        0.58834    0.67680    0.00073    1.000
    S32      S        0.58860    0.67732    0.13869    1.000
    Mo33     Mo       0.92167    0.59354    0.06977    1.000
    S34      S        0.83840    0.67698    0.00087    1.000
    S35      S        0.83830    0.67681    0.13884    1.000
    Mo36     Mo       0.17174    0.84360    0.06998    1.000
    S37      S        0.08849    0.92694    0.00102    1.000
    S38      S        0.08826    0.92684    0.13892    1.000
    Mo39     Mo       0.42170    0.84353    0.06988    1.000
    S40      S        0.33834    0.92694    0.00102    1.000
    S41      S        0.33846    0.92683    0.13893    1.000
    Mo42     Mo       0.67167    0.84345    0.06963    1.000
    S43      S        0.58816    0.92673    0.00075    1.000
    S44      S        0.58850    0.92684    0.13873    1.000
    Mo45     Mo       0.92172    0.84353    0.06988    1.000
    S46      S        0.83847    0.92674    0.00075    1.000
    S47      S        0.83824    0.92685    0.13873    1.000
    C48      C        0.46676    0.43601    0.29562    1.000
    O49      O        0.50501    0.51137    0.25819    1.000
    O50      O        0.40756    0.31715    0.28624    1.000
    H51      H        0.47450    0.45289    0.34250    1.000
    H52      H        0.40061    0.30171    0.24422    1.000
