# CIF file generated by openbabel 3.1.0, see https://openbabel.org
data_I
_chemical_name_common ''
_cell_length_a 13.105
_cell_length_b 13.105
_cell_length_c 23.0122
_cell_angle_alpha 90
_cell_angle_beta 90
_cell_angle_gamma 120
loop_
    _atom_site_label
    _atom_site_type_symbol
    _atom_site_fract_x
    _atom_site_fract_y
    _atom_site_fract_z
    _atom_site_occupancy
    Mo0      Mo       0.16831    0.08309    0.06916    1.000
    S1       S        0.08488    0.16634    0.00026    1.000
    S2       S        0.08507    0.16655    0.13827    1.000
    Mo3      Mo       0.41836    0.08296    0.06896    1.000
    S4       S        0.33469    0.16593    0.99994    1.000
    S5       S        0.33525    0.16648    0.13792    1.000
    Mo6      Mo       0.66835    0.08305    0.06903    1.000
    S7       S        0.58501    0.16621    0.99995    1.000
    S8       S        0.58512    0.16657    0.13786    1.000
    Mo9      Mo       0.91839    0.08308    0.06924    1.000
    S10      S        0.83502    0.16610    0.00009    1.000
    S11      S        0.83502    0.16662    0.13800    1.000
    Mo12     Mo       0.16798    0.33299    0.06919    1.000
    S13      S        0.08515    0.41643    0.99998    1.000
    S14      S        0.08452    0.41627    0.13802    1.000
    Mo15     Mo       0.41865    0.33281    0.06864    1.000
    S16      S        0.33490    0.41647    0.00012    1.000
    S17      S        0.33564    0.41622    0.13743    1.000
    Mo18     Mo       0.66850    0.33306    0.06879    1.000
    S19      S        0.58533    0.41662    0.99981    1.000
    S20      S        0.58510    0.41622    0.13779    1.000
    Mo21     Mo       0.91849    0.33308    0.06884    1.000
    S22      S        0.83523    0.41647    0.99987    1.000
    S23      S        0.83508    0.41623    0.13780    1.000
    Mo24     Mo       0.16826    0.58285    0.06909    1.000
    S25      S        0.08508    0.66648    0.00014    1.000
    S26      S        0.08490    0.66622    0.13804    1.000
    Mo27     Mo       0.41863    0.58343    0.06905    1.000
    S28      S        0.33495    0.66634    0.00010    1.000
    S29      S        0.33489    0.66623    0.13812    1.000
    Mo30     Mo       0.66841    0.58310    0.06900    1.000
    S31      S        0.58523    0.66675    0.00015    1.000
    S32      S        0.58515    0.66640    0.13813    1.000
    Mo33     Mo       0.91836    0.58301    0.06898    1.000
    S34      S        0.83515    0.66661    0.00012    1.000
    S35      S        0.83498    0.66618    0.13802    1.000
    Mo36     Mo       0.16834    0.83302    0.06914    1.000
    S37      S        0.08487    0.91631    0.00026    1.000
    S38      S        0.08504    0.91639    0.13814    1.000
    Mo39     Mo       0.41827    0.83289    0.06908    1.000
    S40      S        0.33492    0.91619    0.00011    1.000
    S41      S        0.33510    0.91635    0.13802    1.000
    Mo42     Mo       0.66844    0.83317    0.06924    1.000
    S43      S        0.58507    0.91630    0.00018    1.000
    S44      S        0.58491    0.91647    0.13808    1.000
    Mo45     Mo       0.91830    0.83306    0.06922    1.000
    S46      S        0.83503    0.91647    0.00029    1.000
    S47      S        0.83506    0.91651    0.13822    1.000
    C48      C        0.27729    0.42610    0.30449    1.000
    O49      O        0.20990    0.43557    0.27171    1.000
    O50      O        0.37100    0.41427    0.28797    1.000
    H51      H        0.27224    0.42580    0.35206    1.000
    H52      H        0.37358    0.41463    0.24519    1.000
