# CIF file generated by openbabel 3.1.0, see https://openbabel.org
data_I
_chemical_name_common ''
_cell_length_a 13.105
_cell_length_b 13.105
_cell_length_c 23.0122
_cell_angle_alpha 90
_cell_angle_beta 90
_cell_angle_gamma 120
loop_
    _atom_site_label
    _atom_site_type_symbol
    _atom_site_fract_x
    _atom_site_fract_y
    _atom_site_fract_z
    _atom_site_occupancy
    Mo0      Mo       0.16624    0.08331    0.06980    1.000
    S1       S        0.08281    0.16658    0.00084    1.000
    S2       S        0.08269    0.16644    0.13878    1.000
    Mo3      Mo       0.41625    0.08320    0.06969    1.000
    S4       S        0.33280    0.16640    0.00071    1.000
    S5       S        0.33316    0.16675    0.13866    1.000
    Mo6      Mo       0.66619    0.08323    0.06966    1.000
    S7       S        0.58281    0.16639    0.00061    1.000
    S8       S        0.58298    0.16669    0.13859    1.000
    Mo9      Mo       0.91615    0.08321    0.06977    1.000
    S10      S        0.83290    0.16659    0.00077    1.000
    S11      S        0.83268    0.16648    0.13872    1.000
    Mo12     Mo       0.16589    0.33309    0.06983    1.000
    S13      S        0.08282    0.41652    0.00084    1.000
    S14      S        0.08269    0.41654    0.13878    1.000
    Mo15     Mo       0.41666    0.33317    0.06951    1.000
    S16      S        0.33277    0.41653    0.00081    1.000
    S17      S        0.33341    0.41684    0.13841    1.000
    Mo18     Mo       0.66626    0.33320    0.06945    1.000
    S19      S        0.58311    0.41672    0.00050    1.000
    S20      S        0.58320    0.41622    0.13837    1.000
    Mo21     Mo       0.91615    0.33323    0.06977    1.000
    S22      S        0.83320    0.41678    0.00071    1.000
    S23      S        0.83268    0.41653    0.13867    1.000
    Mo24     Mo       0.16625    0.58322    0.06980    1.000
    S25      S        0.08297    0.66666    0.00087    1.000
    S26      S        0.08294    0.66661    0.13879    1.000
    Mo27     Mo       0.41666    0.58377    0.06951    1.000
    S28      S        0.33281    0.66668    0.00072    1.000
    S29      S        0.33317    0.66669    0.13867    1.000
    Mo30     Mo       0.66625    0.58325    0.06975    1.000
    S31      S        0.58311    0.66666    0.00051    1.000
    S32      S        0.58321    0.66723    0.13839    1.000
    Mo33     Mo       0.91622    0.58334    0.06980    1.000
    S34      S        0.83300    0.66664    0.00082    1.000
    S35      S        0.83273    0.66650    0.13885    1.000
    Mo36     Mo       0.16634    0.83332    0.06983    1.000
    S37      S        0.08296    0.91659    0.00087    1.000
    S38      S        0.08294    0.91661    0.13879    1.000
    Mo39     Mo       0.41625    0.83333    0.06970    1.000
    S40      S        0.33282    0.91654    0.00075    1.000
    S41      S        0.33306    0.91667    0.13874    1.000
    Mo42     Mo       0.66626    0.83333    0.06946    1.000
    S43      S        0.58281    0.91668    0.00062    1.000
    S44      S        0.58298    0.91657    0.13860    1.000
    Mo45     Mo       0.91622    0.83316    0.06980    1.000
    S46      S        0.83319    0.91669    0.00072    1.000
    S47      S        0.83269    0.91643    0.13867    1.000
    C48      C        0.54409    0.52241    0.29706    1.000
    O49      O        0.62340    0.56139    0.26167    1.000
    O50      O        0.42647    0.46403    0.28468    1.000
    H51      H        0.55614    0.52881    0.34432    1.000
    H52      H        0.41512    0.45802    0.24227    1.000
