# CIF file generated by openbabel 3.1.0, see https://openbabel.org
data_I
_chemical_name_common ''
_cell_length_a 13.105
_cell_length_b 13.105
_cell_length_c 23.0122
_cell_angle_alpha 90
_cell_angle_beta 90
_cell_angle_gamma 120
loop_
    _atom_site_label
    _atom_site_type_symbol
    _atom_site_fract_x
    _atom_site_fract_y
    _atom_site_fract_z
    _atom_site_occupancy
    Mo0      Mo       0.16483    0.07977    0.06898    1.000
    S1       S        0.08142    0.16330    0.00022    1.000
    S2       S        0.08147    0.16293    0.13817    1.000
    Mo3      Mo       0.41468    0.07976    0.06896    1.000
    S4       S        0.33144    0.16316    0.99996    1.000
    S5       S        0.33110    0.16240    0.13788    1.000
    Mo6      Mo       0.66476    0.07982    0.06919    1.000
    S7       S        0.58162    0.16328    0.00019    1.000
    S8       S        0.58120    0.16293    0.13815    1.000
    Mo9      Mo       0.91481    0.07982    0.06920    1.000
    S10      S        0.83149    0.16322    0.00026    1.000
    S11      S        0.83139    0.16306    0.13818    1.000
    Mo12     Mo       0.16464    0.32968    0.06932    1.000
    S13      S        0.08144    0.41304    0.00032    1.000
    S14      S        0.08138    0.41311    0.13824    1.000
    Mo15     Mo       0.41455    0.32932    0.06924    1.000
    S16      S        0.33142    0.41301    0.00039    1.000
    S17      S        0.33150    0.41309    0.13823    1.000
    Mo18     Mo       0.66478    0.32967    0.06930    1.000
    S19      S        0.58133    0.41301    0.00037    1.000
    S20      S        0.58136    0.41303    0.13822    1.000
    Mo21     Mo       0.91476    0.32979    0.06927    1.000
    S22      S        0.83136    0.41305    0.00031    1.000
    S23      S        0.83145    0.41310    0.13823    1.000
    Mo24     Mo       0.16474    0.57975    0.06924    1.000
    S25      S        0.08137    0.66300    0.00024    1.000
    S26      S        0.08151    0.66329    0.13813    1.000
    Mo27     Mo       0.41482    0.57987    0.06924    1.000
    S28      S        0.33139    0.66302    0.00028    1.000
    S29      S        0.33142    0.66323    0.13818    1.000
    Mo30     Mo       0.66478    0.57985    0.06925    1.000
    S31      S        0.58145    0.66316    0.00033    1.000
    S32      S        0.58150    0.66326    0.13826    1.000
    Mo33     Mo       0.91474    0.57975    0.06924    1.000
    S34      S        0.83136    0.66303    0.00028    1.000
    S35      S        0.83155    0.66322    0.13818    1.000
    Mo36     Mo       0.16476    0.82979    0.06908    1.000
    S37      S        0.08130    0.91301    0.00010    1.000
    S38      S        0.08156    0.91322    0.13805    1.000
    Mo39     Mo       0.41477    0.82981    0.06916    1.000
    S40      S        0.33143    0.91299    0.00009    1.000
    S41      S        0.33140    0.91322    0.13805    1.000
    Mo42     Mo       0.66483    0.82991    0.06926    1.000
    S43      S        0.58150    0.91316    0.00024    1.000
    S44      S        0.58139    0.91324    0.13815    1.000
    Mo45     Mo       0.91478    0.82982    0.06916    1.000
    S46      S        0.83140    0.91317    0.00024    1.000
    S47      S        0.83158    0.91324    0.13815    1.000
    C48      C        0.42100    0.34343    0.30387    1.000
    O49      O        0.37366    0.25573    0.27378    1.000
    O50      O        0.47853    0.45672    0.28373    1.000
    H51      H        0.42428    0.34411    0.35146    1.000
    H52      H        0.47453    0.45423    0.24108    1.000
