# CIF file generated by openbabel 3.1.0, see https://openbabel.org
data_I
_chemical_name_common ''
_cell_length_a 13.105
_cell_length_b 13.105
_cell_length_c 23.0122
_cell_angle_alpha 90
_cell_angle_beta 90
_cell_angle_gamma 120
loop_
    _atom_site_label
    _atom_site_type_symbol
    _atom_site_fract_x
    _atom_site_fract_y
    _atom_site_fract_z
    _atom_site_occupancy
    Mo0      Mo       0.16710    0.08348    0.06982    1.000
    S1       S        0.08358    0.16675    0.00093    1.000
    S2       S        0.08379    0.16683    0.13889    1.000
    Mo3      Mo       0.41707    0.08334    0.06970    1.000
    S4       S        0.33358    0.16649    0.00066    1.000
    S5       S        0.33396    0.16696    0.13862    1.000
    Mo6      Mo       0.66700    0.08332    0.06984    1.000
    S7       S        0.58380    0.16664    0.00079    1.000
    S8       S        0.58362    0.16666    0.13873    1.000
    Mo9      Mo       0.91706    0.08340    0.06996    1.000
    S10      S        0.83368    0.16657    0.00092    1.000
    S11      S        0.83359    0.16668    0.13887    1.000
    Mo12     Mo       0.16677    0.33341    0.06989    1.000
    S13      S        0.08355    0.41667    0.00088    1.000
    S14      S        0.08328    0.41649    0.13892    1.000
    Mo15     Mo       0.41722    0.33336    0.06939    1.000
    S16      S        0.33345    0.41681    0.00068    1.000
    S17      S        0.33396    0.41625    0.13829    1.000
    Mo18     Mo       0.66708    0.33333    0.06976    1.000
    S19      S        0.58413    0.41693    0.00067    1.000
    S20      S        0.58361    0.41657    0.13865    1.000
    Mo21     Mo       0.91700    0.33334    0.06983    1.000
    S22      S        0.83380    0.41679    0.00087    1.000
    S23      S        0.83361    0.41660    0.13882    1.000
    Mo24     Mo       0.16699    0.58321    0.06997    1.000
    S25      S        0.08368    0.66662    0.00099    1.000
    S26      S        0.08375    0.66665    0.13894    1.000
    Mo27     Mo       0.41688    0.58348    0.06972    1.000
    S28      S        0.33344    0.66653    0.00074    1.000
    S29      S        0.33381    0.66708    0.13871    1.000
    Mo30     Mo       0.66719    0.58337    0.06980    1.000
    S31      S        0.58385    0.66693    0.00094    1.000
    S32      S        0.58367    0.66659    0.13881    1.000
    Mo33     Mo       0.91708    0.58337    0.06993    1.000
    S34      S        0.83395    0.66688    0.00094    1.000
    S35      S        0.83376    0.66671    0.13886    1.000
    Mo36     Mo       0.16705    0.83334    0.06989    1.000
    S37      S        0.08373    0.91671    0.00093    1.000
    S38      S        0.08395    0.91690    0.13887    1.000
    Mo39     Mo       0.41700    0.83324    0.06966    1.000
    S40      S        0.33356    0.91658    0.00079    1.000
    S41      S        0.33384    0.91669    0.13873    1.000
    Mo42     Mo       0.66717    0.83357    0.06996    1.000
    S43      S        0.58392    0.91671    0.00086    1.000
    S44      S        0.58352    0.91667    0.13882    1.000
    Mo45     Mo       0.91717    0.83347    0.06995    1.000
    S46      S        0.83382    0.91678    0.00100    1.000
    S47      S        0.83386    0.91682    0.13893    1.000
    C48      C        0.33665    0.51659    0.29682    1.000
    O49      O        0.26087    0.50861    0.26372    1.000
    O50      O        0.44228    0.52786    0.28095    1.000
    H51      H        0.33097    0.51593    0.34434    1.000
    H52      H        0.44593    0.52702    0.23831    1.000
