# CIF file generated by openbabel 3.1.0, see https://openbabel.org
data_I
_chemical_name_common ''
_cell_length_a 13.105
_cell_length_b 13.105
_cell_length_c 23.0122
_cell_angle_alpha 90
_cell_angle_beta 90
_cell_angle_gamma 120
loop_
    _atom_site_label
    _atom_site_type_symbol
    _atom_site_fract_x
    _atom_site_fract_y
    _atom_site_fract_z
    _atom_site_occupancy
    C0       C        0.50138    0.56782    0.46792    1.000
    O1       O        0.59020    0.66338    0.46790    1.000
    O2       O        0.49815    0.46163    0.46790    1.000
    H3       H        0.41102    0.55213    0.46791    1.000
    H4       H        0.57960    0.47760    0.46794    1.000
