# CIF file generated by openbabel 3.1.0, see https://openbabel.org
data_I
_chemical_name_common ''
_cell_length_a 13.105
_cell_length_b 13.105
_cell_length_c 23.0122
_cell_angle_alpha 90
_cell_angle_beta 90
_cell_angle_gamma 120
loop_
    _atom_site_label
    _atom_site_type_symbol
    _atom_site_fract_x
    _atom_site_fract_y
    _atom_site_fract_z
    _atom_site_occupancy
    Mo0      Mo       0.16540    0.08358    0.07007    1.000
    S1       S        0.08194    0.16668    0.00102    1.000
    S2       S        0.08214    0.16702    0.13896    1.000
    Mo3      Mo       0.41541    0.08356    0.07015    1.000
    S4       S        0.33209    0.16678    0.00112    1.000
    S5       S        0.33212    0.16705    0.13907    1.000
    Mo6      Mo       0.66540    0.08358    0.07010    1.000
    S7       S        0.58199    0.16681    0.00114    1.000
    S8       S        0.58210    0.16694    0.13908    1.000
    Mo9      Mo       0.91539    0.08359    0.07008    1.000
    S10      S        0.83204    0.16690    0.00112    1.000
    S11      S        0.83212    0.16698    0.13903    1.000
    Mo12     Mo       0.16519    0.33344    0.06981    1.000
    S13      S        0.08195    0.41693    0.00098    1.000
    S14      S        0.08212    0.41684    0.13892    1.000
    Mo15     Mo       0.41556    0.33357    0.06993    1.000
    S16      S        0.33218    0.41690    0.00092    1.000
    S17      S        0.33179    0.41693    0.13850    1.000
    Mo18     Mo       0.66533    0.33353    0.07005    1.000
    S19      S        0.58217    0.41689    0.00100    1.000
    S20      S        0.58214    0.41694    0.13895    1.000
    Mo21     Mo       0.91538    0.33358    0.07004    1.000
    S22      S        0.83201    0.41689    0.00113    1.000
    S23      S        0.83200    0.41686    0.13903    1.000
    Mo24     Mo       0.16541    0.58354    0.07001    1.000
    S25      S        0.08203    0.66690    0.00112    1.000
    S26      S        0.08205    0.66678    0.13902    1.000
    Mo27     Mo       0.41548    0.58374    0.06988    1.000
    S28      S        0.33209    0.66705    0.00103    1.000
    S29      S        0.33208    0.66683    0.13896    1.000
    Mo30     Mo       0.66539    0.58351    0.07001    1.000
    S31      S        0.58223    0.66705    0.00106    1.000
    S32      S        0.58196    0.66671    0.13903    1.000
    Mo33     Mo       0.91537    0.58356    0.07008    1.000
    S34      S        0.83212    0.66695    0.00111    1.000
    S35      S        0.83200    0.66686    0.13904    1.000
    Mo36     Mo       0.16533    0.83352    0.07011    1.000
    S37      S        0.08203    0.91686    0.00115    1.000
    S38      S        0.08202    0.91691    0.13905    1.000
    Mo39     Mo       0.41537    0.83358    0.07009    1.000
    S40      S        0.33201    0.91691    0.00119    1.000
    S41      S        0.33201    0.91685    0.13908    1.000
    Mo42     Mo       0.66534    0.83355    0.07013    1.000
    S43      S        0.58205    0.91690    0.00116    1.000
    S44      S        0.58203    0.91691    0.13907    1.000
    Mo45     Mo       0.91535    0.83357    0.07010    1.000
    S46      S        0.83197    0.91690    0.00117    1.000
    S47      S        0.83203    0.91695    0.13905    1.000
    C48      C        0.42765    0.41072    0.29702    1.000
    O49      O        0.37631    0.41140    0.34063    1.000
    O50      O        0.53293    0.41183    0.29584    1.000
    H51      H        0.39773    0.40917    0.25239    1.000
    H52      H        0.55777    0.41321    0.33615    1.000
