# CIF file generated by openbabel 3.1.0, see https://openbabel.org
data_I
_chemical_name_common ''
_cell_length_a 13.105
_cell_length_b 13.105
_cell_length_c 23.0122
_cell_angle_alpha 90
_cell_angle_beta 90
_cell_angle_gamma 120
loop_
    _atom_site_label
    _atom_site_type_symbol
    _atom_site_fract_x
    _atom_site_fract_y
    _atom_site_fract_z
    _atom_site_occupancy
    Mo0      Mo       0.16764    0.08337    0.07049    1.000
    S1       S        0.08398    0.16631    0.00142    1.000
    S2       S        0.08439    0.16693    0.13938    1.000
    Mo3      Mo       0.41764    0.08348    0.07057    1.000
    S4       S        0.33421    0.16651    0.00146    1.000
    S5       S        0.33431    0.16702    0.13946    1.000
    Mo6      Mo       0.66760    0.08336    0.07061    1.000
    S7       S        0.58430    0.16670    0.00163    1.000
    S8       S        0.58427    0.16679    0.13957    1.000
    Mo9      Mo       0.91752    0.08326    0.07053    1.000
    S10      S        0.83409    0.16655    0.00160    1.000
    S11      S        0.83426    0.16664    0.13953    1.000
    Mo12     Mo       0.16743    0.33332    0.07009    1.000
    S13      S        0.08388    0.41677    0.00141    1.000
    S14      S        0.08427    0.41663    0.13934    1.000
    Mo15     Mo       0.41747    0.33338    0.07023    1.000
    S16      S        0.33411    0.41670    0.00104    1.000
    S17      S        0.33402    0.41668    0.13868    1.000
    Mo18     Mo       0.66748    0.33340    0.07055    1.000
    S19      S        0.58436    0.41675    0.00146    1.000
    S20      S        0.58385    0.41662    0.13946    1.000
    Mo21     Mo       0.91738    0.33326    0.07052    1.000
    S22      S        0.83413    0.41671    0.00161    1.000
    S23      S        0.83413    0.41666    0.13952    1.000
    Mo24     Mo       0.16759    0.58344    0.07045    1.000
    S25      S        0.08425    0.66683    0.00160    1.000
    S26      S        0.08436    0.66669    0.13952    1.000
    Mo27     Mo       0.41751    0.58338    0.07016    1.000
    S28      S        0.33423    0.66702    0.00143    1.000
    S29      S        0.33432    0.66659    0.13940    1.000
    Mo30     Mo       0.66751    0.58330    0.07051    1.000
    S31      S        0.58447    0.66682    0.00144    1.000
    S32      S        0.58390    0.66643    0.13942    1.000
    Mo33     Mo       0.91760    0.58336    0.07059    1.000
    S34      S        0.83433    0.66668    0.00162    1.000
    S35      S        0.83415    0.66657    0.13955    1.000
    Mo36     Mo       0.16771    0.83342    0.07060    1.000
    S37      S        0.08432    0.91659    0.00162    1.000
    S38      S        0.08442    0.91679    0.13954    1.000
    Mo39     Mo       0.41772    0.83348    0.07056    1.000
    S40      S        0.33438    0.91683    0.00163    1.000
    S41      S        0.33441    0.91683    0.13955    1.000
    Mo42     Mo       0.66760    0.83328    0.07054    1.000
    S43      S        0.58439    0.91679    0.00162    1.000
    S44      S        0.58435    0.91666    0.13955    1.000
    Mo45     Mo       0.91767    0.83329    0.07061    1.000
    S46      S        0.83430    0.91653    0.00162    1.000
    S47      S        0.83427    0.91657    0.13952    1.000
    C48      C        0.27595    0.42031    0.29674    1.000
    O49      O        0.24181    0.42000    0.34564    1.000
    O50      O        0.37784    0.42020    0.28284    1.000
    H51      H        0.23088    0.42060    0.25664    1.000
    H52      H        0.41642    0.41986    0.31925    1.000
