# CIF file generated by openbabel 3.1.0, see https://openbabel.org
data_I
_chemical_name_common ''
_cell_length_a 13.105
_cell_length_b 13.105
_cell_length_c 23.0122
_cell_angle_alpha 90
_cell_angle_beta 90
_cell_angle_gamma 120
loop_
    _atom_site_label
    _atom_site_type_symbol
    _atom_site_fract_x
    _atom_site_fract_y
    _atom_site_fract_z
    _atom_site_occupancy
    Mo0      Mo       0.16639    0.08308    0.07057    1.000
    S1       S        0.08308    0.16647    0.00164    1.000
    S2       S        0.08319    0.16652    0.13957    1.000
    Mo3      Mo       0.41635    0.08307    0.07057    1.000
    S4       S        0.33296    0.16625    0.00157    1.000
    S5       S        0.33295    0.16622    0.13949    1.000
    Mo6      Mo       0.66641    0.08319    0.07063    1.000
    S7       S        0.58306    0.16647    0.00163    1.000
    S8       S        0.58300    0.16652    0.13957    1.000
    Mo9      Mo       0.91645    0.08319    0.07063    1.000
    S10      S        0.83307    0.16648    0.00166    1.000
    S11      S        0.83310    0.16653    0.13960    1.000
    Mo12     Mo       0.16625    0.33307    0.07055    1.000
    S13      S        0.08304    0.41646    0.00162    1.000
    S14      S        0.08310    0.41647    0.13956    1.000
    Mo15     Mo       0.41630    0.33291    0.07053    1.000
    S16      S        0.33302    0.41648    0.00164    1.000
    S17      S        0.33292    0.41647    0.13938    1.000
    Mo18     Mo       0.66651    0.33308    0.07055    1.000
    S19      S        0.58315    0.41649    0.00164    1.000
    S20      S        0.58324    0.41647    0.13938    1.000
    Mo21     Mo       0.91642    0.33316    0.07061    1.000
    S22      S        0.83312    0.41646    0.00161    1.000
    S23      S        0.83306    0.41647    0.13956    1.000
    Mo24     Mo       0.16642    0.58310    0.07059    1.000
    S25      S        0.08305    0.66643    0.00164    1.000
    S26      S        0.08304    0.66641    0.13954    1.000
    Mo27     Mo       0.41651    0.58329    0.07056    1.000
    S28      S        0.33312    0.66651    0.00165    1.000
    S29      S        0.33307    0.66638    0.13957    1.000
    Mo30     Mo       0.66645    0.58329    0.07056    1.000
    S31      S        0.58320    0.66672    0.00164    1.000
    S32      S        0.58315    0.66663    0.13956    1.000
    Mo33     Mo       0.91636    0.58310    0.07059    1.000
    S34      S        0.83307    0.66652    0.00165    1.000
    S35      S        0.83298    0.66639    0.13957    1.000
    Mo36     Mo       0.16637    0.83308    0.07061    1.000
    S37      S        0.08298    0.91635    0.00165    1.000
    S38      S        0.08311    0.91647    0.13958    1.000
    Mo39     Mo       0.41642    0.83314    0.07065    1.000
    S40      S        0.33304    0.91634    0.00165    1.000
    S41      S        0.33302    0.91646    0.13958    1.000
    Mo42     Mo       0.66651    0.83336    0.07065    1.000
    S43      S        0.58311    0.91658    0.00167    1.000
    S44      S        0.58310    0.91660    0.13963    1.000
    Mo45     Mo       0.91638    0.83314    0.07065    1.000
    S46      S        0.83314    0.91658    0.00167    1.000
    S47      S        0.83317    0.91661    0.13963    1.000
    C48      C        0.43661    0.37431    0.29234    1.000
    O49      O        0.46439    0.43057    0.33703    1.000
    O50      O        0.37606    0.25351    0.28896    1.000
    H51      H        0.45548    0.41113    0.24832    1.000
    H52      H        0.36010    0.22257    0.32873    1.000
