# CIF file generated by openbabel 3.1.0, see https://openbabel.org
data_I
_chemical_name_common ''
_cell_length_a 13.105
_cell_length_b 13.105
_cell_length_c 23.0122
_cell_angle_alpha 90
_cell_angle_beta 90
_cell_angle_gamma 120
loop_
    _atom_site_label
    _atom_site_type_symbol
    _atom_site_fract_x
    _atom_site_fract_y
    _atom_site_fract_z
    _atom_site_occupancy
    Mo0      Mo       0.16709    0.08440    0.07044    1.000
    S1       S        0.08349    0.16746    0.00143    1.000
    S2       S        0.08388    0.16794    0.13938    1.000
    Mo3      Mo       0.41724    0.08446    0.07053    1.000
    S4       S        0.33375    0.16745    0.00142    1.000
    S5       S        0.33385    0.16795    0.13938    1.000
    Mo6      Mo       0.66714    0.08450    0.07058    1.000
    S7       S        0.58392    0.16784    0.00159    1.000
    S8       S        0.58388    0.16790    0.13951    1.000
    Mo9      Mo       0.91700    0.08446    0.07054    1.000
    S10      S        0.83371    0.16784    0.00159    1.000
    S11      S        0.83380    0.16790    0.13952    1.000
    Mo12     Mo       0.16704    0.33439    0.07014    1.000
    S13      S        0.08363    0.41793    0.00144    1.000
    S14      S        0.08398    0.41772    0.13941    1.000
    Mo15     Mo       0.41712    0.33438    0.07013    1.000
    S16      S        0.33374    0.41771    0.00107    1.000
    S17      S        0.33371    0.41761    0.13870    1.000
    Mo18     Mo       0.66718    0.33455    0.07052    1.000
    S19      S        0.58408    0.41793    0.00143    1.000
    S20      S        0.58352    0.41772    0.13940    1.000
    Mo21     Mo       0.91715    0.33455    0.07053    1.000
    S22      S        0.83390    0.41801    0.00161    1.000
    S23      S        0.83386    0.41794    0.13951    1.000
    Mo24     Mo       0.16719    0.58450    0.07052    1.000
    S25      S        0.08386    0.66793    0.00161    1.000
    S26      S        0.08393    0.66787    0.13953    1.000
    Mo27     Mo       0.41708    0.58439    0.07027    1.000
    S28      S        0.33375    0.66790    0.00149    1.000
    S29      S        0.33386    0.66755    0.13948    1.000
    Mo30     Mo       0.66709    0.58450    0.07051    1.000
    S31      S        0.58392    0.66790    0.00149    1.000
    S32      S        0.58348    0.66755    0.13948    1.000
    Mo33     Mo       0.91721    0.58464    0.07059    1.000
    S34      S        0.83386    0.66793    0.00161    1.000
    S35      S        0.83372    0.66787    0.13953    1.000
    Mo36     Mo       0.16720    0.83453    0.07058    1.000
    S37      S        0.08373    0.91768    0.00157    1.000
    S38      S        0.08384    0.91790    0.13950    1.000
    Mo39     Mo       0.41714    0.83439    0.07057    1.000
    S40      S        0.33387    0.91777    0.00162    1.000
    S41      S        0.33389    0.91780    0.13953    1.000
    Mo42     Mo       0.66703    0.83439    0.07057    1.000
    S43      S        0.58380    0.91781    0.00162    1.000
    S44      S        0.58377    0.91776    0.13955    1.000
    Mo45     Mo       0.91712    0.83453    0.07058    1.000
    S46      S        0.83368    0.91777    0.00162    1.000
    S47      S        0.83370    0.91780    0.13953    1.000
    C48      C        0.30023    0.35416    0.29685    1.000
    O49      O        0.28128    0.31551    0.34587    1.000
    O50      O        0.35915    0.47170    0.28261    1.000
    H51      H        0.27345    0.30146    0.25693    1.000
    H52      H        0.38215    0.51684    0.31891    1.000
