# CIF file generated by openbabel 3.1.0, see https://openbabel.org
data_I
_chemical_name_common ''
_cell_length_a 13.105
_cell_length_b 13.105
_cell_length_c 23.0122
_cell_angle_alpha 90
_cell_angle_beta 90
_cell_angle_gamma 120
loop_
    _atom_site_label
    _atom_site_type_symbol
    _atom_site_fract_x
    _atom_site_fract_y
    _atom_site_fract_z
    _atom_site_occupancy
    Mo0      Mo       0.16603    0.08232    0.07051    1.000
    S1       S        0.08259    0.16545    0.00146    1.000
    S2       S        0.08294    0.16593    0.13945    1.000
    Mo3      Mo       0.41591    0.08229    0.07054    1.000
    S4       S        0.33258    0.16545    0.00146    1.000
    S5       S        0.33272    0.16594    0.13944    1.000
    Mo6      Mo       0.66598    0.08222    0.07060    1.000
    S7       S        0.58261    0.16549    0.00162    1.000
    S8       S        0.58253    0.16550    0.13955    1.000
    Mo9      Mo       0.91611    0.08229    0.07055    1.000
    S10      S        0.83261    0.16549    0.00162    1.000
    S11      S        0.83270    0.16550    0.13955    1.000
    Mo12     Mo       0.16605    0.33235    0.07023    1.000
    S13      S        0.08244    0.41559    0.00146    1.000
    S14      S        0.08285    0.41553    0.13944    1.000
    Mo15     Mo       0.41603    0.33235    0.07022    1.000
    S16      S        0.33273    0.41573    0.00107    1.000
    S17      S        0.33278    0.41581    0.13871    1.000
    Mo18     Mo       0.66590    0.33213    0.07057    1.000
    S19      S        0.58289    0.41560    0.00146    1.000
    S20      S        0.58241    0.41553    0.13944    1.000
    Mo21     Mo       0.91596    0.33213    0.07057    1.000
    S22      S        0.83257    0.41540    0.00164    1.000
    S23      S        0.83256    0.41540    0.13954    1.000
    Mo24     Mo       0.16591    0.58220    0.07047    1.000
    S25      S        0.08249    0.66552    0.00159    1.000
    S26      S        0.08260    0.66544    0.13951    1.000
    Mo27     Mo       0.41607    0.58240    0.07010    1.000
    S28      S        0.33256    0.66588    0.00142    1.000
    S29      S        0.33271    0.66551    0.13937    1.000
    Mo30     Mo       0.66602    0.58220    0.07047    1.000
    S31      S        0.58305    0.66588    0.00142    1.000
    S32      S        0.58252    0.66551    0.13937    1.000
    Mo33     Mo       0.91591    0.58210    0.07059    1.000
    S34      S        0.83276    0.66552    0.00159    1.000
    S35      S        0.83257    0.66544    0.13951    1.000
    Mo36     Mo       0.16590    0.83218    0.07058    1.000
    S37      S        0.08262    0.91551    0.00161    1.000
    S38      S        0.08270    0.91567    0.13953    1.000
    Mo39     Mo       0.41602    0.83237    0.07052    1.000
    S40      S        0.33255    0.91561    0.00161    1.000
    S41      S        0.33259    0.91562    0.13951    1.000
    Mo42     Mo       0.66608    0.83237    0.07052    1.000
    S43      S        0.58272    0.91571    0.00159    1.000
    S44      S        0.58266    0.91558    0.13952    1.000
    Mo45     Mo       0.91601    0.83218    0.07058    1.000
    S46      S        0.83280    0.91561    0.00161    1.000
    S47      S        0.83276    0.91562    0.13951    1.000
    C48      C        0.36658    0.48610    0.29667    1.000
    O49      O        0.38655    0.52570    0.34550    1.000
    O50      O        0.30766    0.36829    0.28297    1.000
    H51      H        0.39231    0.53805    0.25650    1.000
    H52      H        0.28559    0.32385    0.31948    1.000
