# CIF file generated by openbabel 3.1.0, see https://openbabel.org
data_I
_chemical_name_common ''
_cell_length_a 13.105
_cell_length_b 13.105
_cell_length_c 23.0122
_cell_angle_alpha 90
_cell_angle_beta 90
_cell_angle_gamma 120
loop_
    _atom_site_label
    _atom_site_type_symbol
    _atom_site_fract_x
    _atom_site_fract_y
    _atom_site_fract_z
    _atom_site_occupancy
    Mo0      Mo       0.16614    0.08274    0.07095    1.000
    S1       S        0.08286    0.16604    0.00201    1.000
    S2       S        0.08289    0.16610    0.13996    1.000
    Mo3      Mo       0.41633    0.08274    0.07095    1.000
    S4       S        0.33299    0.16624    0.00204    1.000
    S5       S        0.33281    0.16589    0.13981    1.000
    Mo6      Mo       0.66622    0.08270    0.07101    1.000
    S7       S        0.58291    0.16605    0.00201    1.000
    S8       S        0.58294    0.16610    0.13996    1.000
    Mo9      Mo       0.91619    0.08270    0.07100    1.000
    S10      S        0.83285    0.16598    0.00202    1.000
    S11      S        0.83288    0.16603    0.13996    1.000
    Mo12     Mo       0.16618    0.33272    0.07093    1.000
    S13      S        0.08288    0.41609    0.00202    1.000
    S14      S        0.08287    0.41601    0.13994    1.000
    Mo15     Mo       0.41634    0.33294    0.07102    1.000
    S16      S        0.33301    0.41627    0.00204    1.000
    S17      S        0.33266    0.41619    0.13992    1.000
    Mo18     Mo       0.66627    0.33273    0.07093    1.000
    S19      S        0.58299    0.41627    0.00205    1.000
    S20      S        0.58325    0.41618    0.13993    1.000
    Mo21     Mo       0.91620    0.33268    0.07098    1.000
    S22      S        0.83294    0.41609    0.00202    1.000
    S23      S        0.83288    0.41601    0.13995    1.000
    Mo24     Mo       0.16622    0.58273    0.07101    1.000
    S25      S        0.08290    0.66606    0.00203    1.000
    S26      S        0.08292    0.66610    0.13997    1.000
    Mo27     Mo       0.41632    0.58289    0.07109    1.000
    S28      S        0.33294    0.66612    0.00209    1.000
    S29      S        0.33285    0.66612    0.14003    1.000
    Mo30     Mo       0.66630    0.58289    0.07109    1.000
    S31      S        0.58293    0.66612    0.00212    1.000
    S32      S        0.58296    0.66620    0.14012    1.000
    Mo33     Mo       0.91625    0.58274    0.07101    1.000
    S34      S        0.83291    0.66612    0.00210    1.000
    S35      S        0.83300    0.66612    0.14003    1.000
    Mo36     Mo       0.16625    0.83278    0.07099    1.000
    S37      S        0.08290    0.91610    0.00203    1.000
    S38      S        0.08299    0.91616    0.13996    1.000
    Mo39     Mo       0.41621    0.83277    0.07104    1.000
    S40      S        0.33293    0.91610    0.00203    1.000
    S41      S        0.33289    0.91615    0.13996    1.000
    Mo42     Mo       0.66622    0.83273    0.07106    1.000
    S43      S        0.58287    0.91600    0.00207    1.000
    S44      S        0.58288    0.91609    0.14002    1.000
    Mo45     Mo       0.91628    0.83277    0.07104    1.000
    S46      S        0.83286    0.91600    0.00207    1.000
    S47      S        0.83293    0.91609    0.14002    1.000
    C48      C        0.41952    0.34107    0.28884    1.000
    O49      O        0.39258    0.28736    0.33430    1.000
    O50      O        0.47997    0.46164    0.28383    1.000
    H51      H        0.39980    0.30155    0.24539    1.000
    H52      H        0.49656    0.49471    0.32318    1.000
