# CIF file generated by openbabel 3.1.0, see https://openbabel.org
data_I
_chemical_name_common ''
_cell_length_a 13.105
_cell_length_b 13.105
_cell_length_c 23.0122
_cell_angle_alpha 90
_cell_angle_beta 90
_cell_angle_gamma 120
loop_
    _atom_site_label
    _atom_site_type_symbol
    _atom_site_fract_x
    _atom_site_fract_y
    _atom_site_fract_z
    _atom_site_occupancy
    Mo0      Mo       0.16645    0.08279    0.07075    1.000
    S1       S        0.08300    0.16596    0.00173    1.000
    S2       S        0.08307    0.16610    0.13969    1.000
    Mo3      Mo       0.41641    0.08276    0.07078    1.000
    S4       S        0.33312    0.16607    0.00178    1.000
    S5       S        0.33309    0.16607    0.13975    1.000
    Mo6      Mo       0.66644    0.08279    0.07078    1.000
    S7       S        0.58308    0.16616    0.00186    1.000
    S8       S        0.58306    0.16609    0.13975    1.000
    Mo9      Mo       0.91640    0.08273    0.07076    1.000
    S10      S        0.83313    0.16615    0.00184    1.000
    S11      S        0.83311    0.16609    0.13972    1.000
    Mo12     Mo       0.16636    0.33269    0.07062    1.000
    S13      S        0.08300    0.41614    0.00176    1.000
    S14      S        0.08326    0.41613    0.13975    1.000
    Mo15     Mo       0.41648    0.33272    0.07074    1.000
    S16      S        0.33319    0.41617    0.00174    1.000
    S17      S        0.33283    0.41564    0.13950    1.000
    Mo18     Mo       0.66639    0.33280    0.07083    1.000
    S19      S        0.58321    0.41619    0.00184    1.000
    S20      S        0.58305    0.41612    0.13984    1.000
    Mo21     Mo       0.91646    0.33277    0.07082    1.000
    S22      S        0.83305    0.41606    0.00189    1.000
    S23      S        0.83308    0.41604    0.13978    1.000
    Mo24     Mo       0.16636    0.58275    0.07074    1.000
    S25      S        0.08302    0.66608    0.00181    1.000
    S26      S        0.08308    0.66610    0.13975    1.000
    Mo27     Mo       0.41648    0.58271    0.07081    1.000
    S28      S        0.33315    0.66609    0.00183    1.000
    S29      S        0.33309    0.66626    0.13964    1.000
    Mo30     Mo       0.66635    0.58276    0.07087    1.000
    S31      S        0.58308    0.66604    0.00184    1.000
    S32      S        0.58308    0.66615    0.13985    1.000
    Mo33     Mo       0.91640    0.58274    0.07082    1.000
    S34      S        0.83301    0.66605    0.00190    1.000
    S35      S        0.83308    0.66610    0.13979    1.000
    Mo36     Mo       0.16646    0.83275    0.07078    1.000
    S37      S        0.08309    0.91608    0.00185    1.000
    S38      S        0.08316    0.91614    0.13973    1.000
    Mo39     Mo       0.41653    0.83289    0.07074    1.000
    S40      S        0.33312    0.91613    0.00181    1.000
    S41      S        0.33316    0.91613    0.13973    1.000
    Mo42     Mo       0.66636    0.83268    0.07078    1.000
    S43      S        0.58315    0.91613    0.00180    1.000
    S44      S        0.58314    0.91612    0.13974    1.000
    Mo45     Mo       0.91642    0.83275    0.07082    1.000
    S46      S        0.83307    0.91601    0.00185    1.000
    S47      S        0.83303    0.91608    0.13975    1.000
    C48      C        0.33807    0.52677    0.29266    1.000
    O49      O        0.29588    0.52147    0.34012    1.000
    O50      O        0.44030    0.52474    0.28248    1.000
    H51      H        0.30117    0.53403    0.25115    1.000
    H52      H        0.47167    0.51863    0.32018    1.000
