# CIF file generated by openbabel 3.1.0, see https://openbabel.org
data_I
_chemical_name_common ''
_cell_length_a 13.105
_cell_length_b 13.105
_cell_length_c 23.0122
_cell_angle_alpha 90
_cell_angle_beta 90
_cell_angle_gamma 120
loop_
    _atom_site_label
    _atom_site_type_symbol
    _atom_site_fract_x
    _atom_site_fract_y
    _atom_site_fract_z
    _atom_site_occupancy
    Mo0      Mo       0.16339    0.08233    0.07228    1.000
    S1       S        0.07915    0.16453    0.00311    1.000
    S2       S        0.08004    0.16593    0.14101    1.000
    Mo3      Mo       0.41385    0.08274    0.07253    1.000
    S4       S        0.32998    0.16532    0.00328    1.000
    S5       S        0.32999    0.16606    0.14127    1.000
    Mo6      Mo       0.66359    0.08236    0.07258    1.000
    S7       S        0.58065    0.16625    0.00382    1.000
    S8       S        0.58055    0.16592    0.14166    1.000
    Mo9      Mo       0.91306    0.08182    0.07238    1.000
    S10      S        0.82987    0.16552    0.00355    1.000
    S11      S        0.83043    0.16580    0.14136    1.000
    Mo12     Mo       0.16264    0.33186    0.07161    1.000
    S13      S        0.07919    0.41539    0.00287    1.000
    S14      S        0.08056    0.41591    0.14081    1.000
    Mo15     Mo       0.41272    0.33208    0.07208    1.000
    S16      S        0.32905    0.41458    0.00261    1.000
    S17      S        0.32865    0.41516    0.14040    1.000
    Mo18     Mo       0.66379    0.33268    0.07280    1.000
    S19      S        0.58020    0.41555    0.00363    1.000
    S20      S        0.57939    0.41561    0.14130    1.000
    Mo21     Mo       0.91334    0.33255    0.07237    1.000
    S22      S        0.82990    0.41604    0.00365    1.000
    S23      S        0.83082    0.41645    0.14173    1.000
    Mo24     Mo       0.16339    0.58238    0.07178    1.000
    S25      S        0.08009    0.66641    0.00337    1.000
    S26      S        0.08101    0.66589    0.14124    1.000
    Mo27     Mo       0.41266    0.58161    0.07148    1.000
    S28      S        0.32991    0.66586    0.00271    1.000
    S29      S        0.33003    0.66516    0.14061    1.000
    Mo30     Mo       0.66337    0.58234    0.07242    1.000
    S31      S        0.58020    0.66532    0.00316    1.000
    S32      S        0.57871    0.66477    0.14095    1.000
    Mo33     Mo       0.91377    0.58274    0.07257    1.000
    S34      S        0.83033    0.66584    0.00364    1.000
    S35      S        0.83012    0.66574    0.14152    1.000
    Mo36     Mo       0.16422    0.83286    0.07253    1.000
    S37      S        0.08005    0.91541    0.00364    1.000
    S38      S        0.08068    0.91620    0.14146    1.000
    Mo39     Mo       0.41374    0.83241    0.07209    1.000
    S40      S        0.33087    0.91640    0.00339    1.000
    S41      S        0.33124    0.91609    0.14144    1.000
    Mo42     Mo       0.66331    0.83196    0.07241    1.000
    S43      S        0.58059    0.91583    0.00346    1.000
    S44      S        0.58004    0.91537    0.14134    1.000
    Mo45     Mo       0.91350    0.83235    0.07266    1.000
    S46      S        0.82986    0.91506    0.00351    1.000
    S47      S        0.82998    0.91539    0.14164    1.000
    C48      C        0.49063    0.51720    0.28809    1.000
    O49      O        0.40640    0.42096    0.27751    1.000
    O50      O        0.60595    0.54746    0.28048    1.000
    H51      H        0.48621    0.59322    0.30522    1.000
    H52      H        0.60754    0.47979    0.26290    1.000
