# CIF file generated by openbabel 3.1.0, see https://openbabel.org
data_I
_chemical_name_common ''
_cell_length_a 13.105
_cell_length_b 13.105
_cell_length_c 23.0122
_cell_angle_alpha 90
_cell_angle_beta 90
_cell_angle_gamma 120
loop_
    _atom_site_label
    _atom_site_type_symbol
    _atom_site_fract_x
    _atom_site_fract_y
    _atom_site_fract_z
    _atom_site_occupancy
    Mo0      Mo       0.16610    0.08341    0.07070    1.000
    S1       S        0.08264    0.16653    0.00165    1.000
    S2       S        0.08271    0.16677    0.13961    1.000
    Mo3      Mo       0.41610    0.08340    0.07066    1.000
    S4       S        0.33271    0.16669    0.00171    1.000
    S5       S        0.33287    0.16693    0.13963    1.000
    Mo6      Mo       0.66605    0.08330    0.07063    1.000
    S7       S        0.58272    0.16661    0.00165    1.000
    S8       S        0.58277    0.16670    0.13958    1.000
    Mo9      Mo       0.91603    0.08332    0.07065    1.000
    S10      S        0.83273    0.16667    0.00168    1.000
    S11      S        0.83270    0.16665    0.13960    1.000
    Mo12     Mo       0.16593    0.33327    0.07053    1.000
    S13      S        0.08267    0.41674    0.00165    1.000
    S14      S        0.08275    0.41660    0.13960    1.000
    Mo15     Mo       0.41594    0.33337    0.07058    1.000
    S16      S        0.33259    0.41657    0.00156    1.000
    S17      S        0.33236    0.41648    0.13947    1.000
    Mo18     Mo       0.66619    0.33324    0.07056    1.000
    S19      S        0.58282    0.41665    0.00166    1.000
    S20      S        0.58276    0.41643    0.13942    1.000
    Mo21     Mo       0.91606    0.33334    0.07065    1.000
    S22      S        0.83287    0.41678    0.00169    1.000
    S23      S        0.83270    0.41659    0.13962    1.000
    Mo24     Mo       0.16613    0.58334    0.07069    1.000
    S25      S        0.08288    0.66679    0.00177    1.000
    S26      S        0.08290    0.66671    0.13970    1.000
    Mo27     Mo       0.41593    0.58314    0.07056    1.000
    S28      S        0.33274    0.66663    0.00170    1.000
    S29      S        0.33290    0.66656    0.13961    1.000
    Mo30     Mo       0.66624    0.58337    0.07060    1.000
    S31      S        0.58281    0.66669    0.00167    1.000
    S32      S        0.58273    0.66681    0.13941    1.000
    Mo33     Mo       0.91620    0.58337    0.07073    1.000
    S34      S        0.83301    0.66680    0.00176    1.000
    S35      S        0.83280    0.66669    0.13968    1.000
    Mo36     Mo       0.16615    0.83340    0.07075    1.000
    S37      S        0.08285    0.91673    0.00178    1.000
    S38      S        0.08286    0.91682    0.13971    1.000
    Mo39     Mo       0.41611    0.83331    0.07065    1.000
    S40      S        0.33270    0.91666    0.00173    1.000
    S41      S        0.33289    0.91674    0.13965    1.000
    Mo42     Mo       0.66616    0.83346    0.07057    1.000
    S43      S        0.58273    0.91664    0.00165    1.000
    S44      S        0.58277    0.91660    0.13958    1.000
    Mo45     Mo       0.91617    0.83343    0.07074    1.000
    S46      S        0.83281    0.91665    0.00170    1.000
    S47      S        0.83265    0.91668    0.13962    1.000
    C48      C        0.55099    0.52646    0.29250    1.000
    O49      O        0.60371    0.55895    0.33810    1.000
    O50      O        0.43088    0.45820    0.28709    1.000
    H51      H        0.59097    0.54652    0.24916    1.000
    H52      H        0.39716    0.44133    0.32630    1.000
