# CIF file generated by openbabel 3.1.0, see https://openbabel.org
data_I
_chemical_name_common ''
_cell_length_a 13.105
_cell_length_b 13.105
_cell_length_c 23.0122
_cell_angle_alpha 90
_cell_angle_beta 90
_cell_angle_gamma 120
loop_
    _atom_site_label
    _atom_site_type_symbol
    _atom_site_fract_x
    _atom_site_fract_y
    _atom_site_fract_z
    _atom_site_occupancy
    Mo0      Mo       0.16658    0.08350    0.07067    1.000
    S1       S        0.08330    0.16683    0.00164    1.000
    S2       S        0.08329    0.16696    0.13957    1.000
    Mo3      Mo       0.41664    0.08350    0.07067    1.000
    S4       S        0.33323    0.16673    0.00171    1.000
    S5       S        0.33328    0.16685    0.13964    1.000
    Mo6      Mo       0.66667    0.08362    0.07061    1.000
    S7       S        0.58325    0.16683    0.00164    1.000
    S8       S        0.58339    0.16696    0.13958    1.000
    Mo9      Mo       0.91667    0.08362    0.07061    1.000
    S10      S        0.83334    0.16695    0.00165    1.000
    S11      S        0.83334    0.16696    0.13957    1.000
    Mo12     Mo       0.16649    0.33349    0.07054    1.000
    S13      S        0.08330    0.41694    0.00162    1.000
    S14      S        0.08334    0.41690    0.13955    1.000
    Mo15     Mo       0.41658    0.33344    0.07059    1.000
    S16      S        0.33327    0.41686    0.00165    1.000
    S17      S        0.33310    0.41690    0.13941    1.000
    Mo18     Mo       0.66672    0.33349    0.07054    1.000
    S19      S        0.58331    0.41686    0.00166    1.000
    S20      S        0.58352    0.41690    0.13942    1.000
    Mo21     Mo       0.91667    0.33361    0.07060    1.000
    S22      S        0.83337    0.41694    0.00162    1.000
    S23      S        0.83329    0.41690    0.13955    1.000
    Mo24     Mo       0.16668    0.58356    0.07061    1.000
    S25      S        0.08333    0.66692    0.00167    1.000
    S26      S        0.08328    0.66683    0.13959    1.000
    Mo27     Mo       0.41683    0.58372    0.07057    1.000
    S28      S        0.33338    0.66694    0.00167    1.000
    S29      S        0.33343    0.66683    0.13959    1.000
    Mo30     Mo       0.66661    0.58372    0.07057    1.000
    S31      S        0.58341    0.66709    0.00156    1.000
    S32      S        0.58351    0.66729    0.13946    1.000
    Mo33     Mo       0.91661    0.58356    0.07061    1.000
    S34      S        0.83329    0.66694    0.00167    1.000
    S35      S        0.83312    0.66683    0.13959    1.000
    Mo36     Mo       0.16662    0.83352    0.07066    1.000
    S37      S        0.08328    0.91683    0.00170    1.000
    S38      S        0.08323    0.91680    0.13963    1.000
    Mo39     Mo       0.41669    0.83357    0.07065    1.000
    S40      S        0.33327    0.91683    0.00170    1.000
    S41      S        0.33330    0.91680    0.13963    1.000
    Mo42     Mo       0.66672    0.83372    0.07052    1.000
    S43      S        0.58329    0.91702    0.00162    1.000
    S44      S        0.58341    0.91695    0.13957    1.000
    Mo45     Mo       0.91661    0.83357    0.07065    1.000
    S46      S        0.83344    0.91701    0.00162    1.000
    S47      S        0.83327    0.91695    0.13957    1.000
    C48      C        0.48163    0.46379    0.29223    1.000
    O49      O        0.45349    0.40747    0.33691    1.000
    O50      O        0.54205    0.58456    0.28887    1.000
    H51      H        0.46314    0.42690    0.24824    1.000
    H52      H        0.55756    0.61542    0.32865    1.000
