# CIF file generated by openbabel 3.1.0, see https://openbabel.org
data_I
_chemical_name_common ''
_cell_length_a 13.105
_cell_length_b 13.105
_cell_length_c 23.0122
_cell_angle_alpha 90
_cell_angle_beta 90
_cell_angle_gamma 120
loop_
    _atom_site_label
    _atom_site_type_symbol
    _atom_site_fract_x
    _atom_site_fract_y
    _atom_site_fract_z
    _atom_site_occupancy
    Mo0      Mo       0.16710    0.08317    0.07014    1.000
    S1       S        0.08347    0.16597    0.00090    1.000
    S2       S        0.08370    0.16673    0.13886    1.000
    Mo3      Mo       0.41697    0.08326    0.07031    1.000
    S4       S        0.33378    0.16651    0.00125    1.000
    S5       S        0.33369    0.16680    0.13927    1.000
    Mo6      Mo       0.66694    0.08322    0.07021    1.000
    S7       S        0.58350    0.16649    0.00127    1.000
    S8       S        0.58372    0.16676    0.13922    1.000
    Mo9      Mo       0.91688    0.08298    0.06997    1.000
    S10      S        0.83331    0.16630    0.00110    1.000
    S11      S        0.83373    0.16651    0.13900    1.000
    Mo12     Mo       0.16657    0.33300    0.06948    1.000
    S13      S        0.08323    0.41668    0.00087    1.000
    S14      S        0.08354    0.41632    0.13882    1.000
    Mo15     Mo       0.41700    0.33318    0.07016    1.000
    S16      S        0.33376    0.41656    0.00082    1.000
    S17      S        0.33279    0.41633    0.13825    1.000
    Mo18     Mo       0.66677    0.33332    0.07012    1.000
    S19      S        0.58346    0.41653    0.00115    1.000
    S20      S        0.58338    0.41633    0.13924    1.000
    Mo21     Mo       0.91663    0.33310    0.06997    1.000
    S22      S        0.83335    0.41661    0.00109    1.000
    S23      S        0.83340    0.41643    0.13908    1.000
    Mo24     Mo       0.16700    0.58325    0.07002    1.000
    S25      S        0.08363    0.66666    0.00120    1.000
    S26      S        0.08371    0.66637    0.13913    1.000
    Mo27     Mo       0.41696    0.58332    0.06991    1.000
    S28      S        0.33376    0.66686    0.00111    1.000
    S29      S        0.33367    0.66642    0.13907    1.000
    Mo30     Mo       0.66669    0.58290    0.07027    1.000
    S31      S        0.58375    0.66648    0.00114    1.000
    S32      S        0.58335    0.66635    0.13916    1.000
    Mo33     Mo       0.91691    0.58311    0.07019    1.000
    S34      S        0.83350    0.66634    0.00130    1.000
    S35      S        0.83345    0.66625    0.13923    1.000
    Mo36     Mo       0.16711    0.83317    0.07025    1.000
    S37      S        0.08372    0.91630    0.00127    1.000
    S38      S        0.08377    0.91654    0.13918    1.000
    Mo39     Mo       0.41710    0.83335    0.07022    1.000
    S40      S        0.33378    0.91667    0.00128    1.000
    S41      S        0.33374    0.91659    0.13926    1.000
    Mo42     Mo       0.66700    0.83308    0.07012    1.000
    S43      S        0.58371    0.91665    0.00124    1.000
    S44      S        0.58383    0.91654    0.13917    1.000
    Mo45     Mo       0.91699    0.83301    0.07022    1.000
    S46      S        0.83365    0.91618    0.00112    1.000
    S47      S        0.83369    0.91644    0.13908    1.000
    H48      H        0.40104    0.42332    0.35002    1.000
    N49      N        0.28242    0.42187    0.29082    1.000
    H50      H        0.22927    0.42000    0.32303    1.000
    H51      H        0.25849    0.42281    0.24907    1.000
    C52      C        0.38575    0.42437    0.30288    1.000
    O53      O        0.45556    0.42741    0.26623    1.000
