# CIF file generated by openbabel 3.1.0, see https://openbabel.org
data_I
_chemical_name_common ''
_cell_length_a 13.105
_cell_length_b 13.105
_cell_length_c 23.0122
_cell_angle_alpha 90
_cell_angle_beta 90
_cell_angle_gamma 120
loop_
    _atom_site_label
    _atom_site_type_symbol
    _atom_site_fract_x
    _atom_site_fract_y
    _atom_site_fract_z
    _atom_site_occupancy
    Mo0      Mo       0.16605    0.08353    0.06973    1.000
    S1       S        0.08271    0.16680    0.00074    1.000
    S2       S        0.08269    0.16691    0.13864    1.000
    Mo3      Mo       0.41605    0.08357    0.06972    1.000
    S4       S        0.33272    0.16687    0.00078    1.000
    S5       S        0.33273    0.16690    0.13870    1.000
    Mo6      Mo       0.66602    0.08352    0.06969    1.000
    S7       S        0.58270    0.16693    0.00078    1.000
    S8       S        0.58272    0.16685    0.13871    1.000
    Mo9      Mo       0.91599    0.08346    0.06967    1.000
    S10      S        0.83264    0.16684    0.00073    1.000
    S11      S        0.83265    0.16680    0.13864    1.000
    Mo12     Mo       0.16611    0.33357    0.06962    1.000
    S13      S        0.08257    0.41670    0.00062    1.000
    S14      S        0.08276    0.41689    0.13856    1.000
    Mo15     Mo       0.41612    0.33356    0.06973    1.000
    S16      S        0.33279    0.41668    0.00063    1.000
    S17      S        0.33293    0.41711    0.13859    1.000
    Mo18     Mo       0.66598    0.33356    0.06976    1.000
    S19      S        0.58269    0.41679    0.00074    1.000
    S20      S        0.58273    0.41707    0.13873    1.000
    Mo21     Mo       0.91598    0.33350    0.06967    1.000
    S22      S        0.83259    0.41686    0.00076    1.000
    S23      S        0.83269    0.41691    0.13868    1.000
    Mo24     Mo       0.16571    0.58333    0.06948    1.000
    S25      S        0.08254    0.66685    0.00065    1.000
    S26      S        0.08267    0.66679    0.13857    1.000
    Mo27     Mo       0.41641    0.58351    0.06936    1.000
    S28      S        0.33274    0.66690    0.00057    1.000
    S29      S        0.33277    0.66693    0.13810    1.000
    Mo30     Mo       0.66601    0.58355    0.06961    1.000
    S31      S        0.58292    0.66682    0.00038    1.000
    S32      S        0.58290    0.66698    0.13833    1.000
    Mo33     Mo       0.91594    0.58357    0.06969    1.000
    S34      S        0.83269    0.66685    0.00071    1.000
    S35      S        0.83249    0.66683    0.13869    1.000
    Mo36     Mo       0.16605    0.83350    0.06964    1.000
    S37      S        0.08269    0.91687    0.00075    1.000
    S38      S        0.08265    0.91676    0.13865    1.000
    Mo39     Mo       0.41625    0.83386    0.06947    1.000
    S40      S        0.33271    0.91705    0.00064    1.000
    S41      S        0.33277    0.91681    0.13858    1.000
    Mo42     Mo       0.66600    0.83340    0.06945    1.000
    S43      S        0.58284    0.91704    0.00057    1.000
    S44      S        0.58270    0.91663    0.13855    1.000
    Mo45     Mo       0.91595    0.83344    0.06970    1.000
    S46      S        0.83283    0.91686    0.00065    1.000
    S47      S        0.83245    0.91664    0.13861    1.000
    H48      H        0.51375    0.66645    0.36051    1.000
    N49      N        0.41836    0.66191    0.28844    1.000
    H50      H        0.35696    0.66535    0.31353    1.000
    H51      H        0.40828    0.65949    0.24472    1.000
    C52      C        0.51406    0.66274    0.31256    1.000
    O53      O        0.59278    0.65965    0.28498    1.000
