# CIF file generated by openbabel 3.1.0, see https://openbabel.org
data_I
_chemical_name_common ''
_cell_length_a 13.105
_cell_length_b 13.105
_cell_length_c 23.0122
_cell_angle_alpha 90
_cell_angle_beta 90
_cell_angle_gamma 120
loop_
    _atom_site_label
    _atom_site_type_symbol
    _atom_site_fract_x
    _atom_site_fract_y
    _atom_site_fract_z
    _atom_site_occupancy
    Mo0      Mo       0.16364    0.07702    0.07036    1.000
    S1       S        0.08011    0.16032    0.00148    1.000
    S2       S        0.08036    0.16037    0.13942    1.000
    Mo3      Mo       0.41337    0.07702    0.07037    1.000
    S4       S        0.33019    0.16038    0.00136    1.000
    S5       S        0.33002    0.16008    0.13935    1.000
    Mo6      Mo       0.66346    0.07703    0.07053    1.000
    S7       S        0.58019    0.16031    0.00149    1.000
    S8       S        0.57999    0.16037    0.13943    1.000
    Mo9      Mo       0.91355    0.07704    0.07052    1.000
    S10      S        0.83015    0.16033    0.00157    1.000
    S11      S        0.83020    0.16040    0.13949    1.000
    Mo12     Mo       0.16347    0.32698    0.07040    1.000
    S13      S        0.08010    0.41036    0.00151    1.000
    S14      S        0.08021    0.41028    0.13945    1.000
    Mo15     Mo       0.41339    0.32677    0.07055    1.000
    S16      S        0.33011    0.41016    0.00144    1.000
    S17      S        0.32989    0.41003    0.13938    1.000
    Mo18     Mo       0.66351    0.32699    0.07040    1.000
    S19      S        0.58005    0.41016    0.00143    1.000
    S20      S        0.58017    0.41005    0.13937    1.000
    Mo21     Mo       0.91351    0.32701    0.07051    1.000
    S22      S        0.83024    0.41036    0.00151    1.000
    S23      S        0.83006    0.41028    0.13946    1.000
    Mo24     Mo       0.16343    0.57697    0.07052    1.000
    S25      S        0.08015    0.66031    0.00157    1.000
    S26      S        0.08016    0.66034    0.13948    1.000
    Mo27     Mo       0.41316    0.57668    0.07040    1.000
    S28      S        0.33007    0.66030    0.00152    1.000
    S29      S        0.33010    0.66018    0.13945    1.000
    Mo30     Mo       0.66352    0.57668    0.07039    1.000
    S31      S        0.58014    0.66030    0.00160    1.000
    S32      S        0.58000    0.66001    0.13938    1.000
    Mo33     Mo       0.91352    0.57697    0.07052    1.000
    S34      S        0.83022    0.66030    0.00152    1.000
    S35      S        0.83008    0.66019    0.13945    1.000
    Mo36     Mo       0.16347    0.82695    0.07050    1.000
    S37      S        0.08013    0.91023    0.00150    1.000
    S38      S        0.08029    0.91047    0.13943    1.000
    Mo39     Mo       0.41348    0.82699    0.07051    1.000
    S40      S        0.33010    0.91024    0.00151    1.000
    S41      S        0.33016    0.91047    0.13944    1.000
    Mo42     Mo       0.66357    0.82715    0.07055    1.000
    S43      S        0.58019    0.91038    0.00158    1.000
    S44      S        0.58014    0.91041    0.13949    1.000
    Mo45     Mo       0.91350    0.82699    0.07050    1.000
    S46      S        0.83016    0.91037    0.00158    1.000
    S47      S        0.83025    0.91041    0.13949    1.000
    H48      H        0.43264    0.36261    0.34570    1.000
    N49      N        0.50163    0.50277    0.28883    1.000
    H50      H        0.52988    0.56083    0.32206    1.000
    H51      H        0.51712    0.53432    0.24765    1.000
    C52      C        0.44339    0.38423    0.29893    1.000
    O53      O        0.40605    0.30807    0.26090    1.000
