# CIF file generated by openbabel 3.1.0, see https://openbabel.org
data_I
_chemical_name_common ''
_cell_length_a 13.105
_cell_length_b 13.105
_cell_length_c 23.0122
_cell_angle_alpha 90
_cell_angle_beta 90
_cell_angle_gamma 120
loop_
    _atom_site_label
    _atom_site_type_symbol
    _atom_site_fract_x
    _atom_site_fract_y
    _atom_site_fract_z
    _atom_site_occupancy
    Mo0      Mo       0.16656    0.08350    0.07055    1.000
    S1       S        0.08317    0.16650    0.00138    1.000
    S2       S        0.08322    0.16688    0.13946    1.000
    Mo3      Mo       0.41631    0.08340    0.07034    1.000
    S4       S        0.33294    0.16651    0.00138    1.000
    S5       S        0.33329    0.16686    0.13945    1.000
    Mo6      Mo       0.66646    0.08332    0.07035    1.000
    S7       S        0.58311    0.16669    0.00145    1.000
    S8       S        0.58295    0.16647    0.13937    1.000
    Mo9      Mo       0.91668    0.08340    0.07036    1.000
    S10      S        0.83319    0.16669    0.00146    1.000
    S11      S        0.83312    0.16648    0.13937    1.000
    Mo12     Mo       0.16639    0.33325    0.07019    1.000
    S13      S        0.08283    0.41647    0.00136    1.000
    S14      S        0.08331    0.41659    0.13936    1.000
    Mo15     Mo       0.41646    0.33324    0.07021    1.000
    S16      S        0.33298    0.41635    0.00088    1.000
    S17      S        0.33350    0.41744    0.13828    1.000
    Mo18     Mo       0.66639    0.33321    0.07047    1.000
    S19      S        0.58325    0.41647    0.00138    1.000
    S20      S        0.58288    0.41657    0.13937    1.000
    Mo21     Mo       0.91643    0.33321    0.07047    1.000
    S22      S        0.83305    0.41648    0.00154    1.000
    S23      S        0.83306    0.41650    0.13944    1.000
    Mo24     Mo       0.16632    0.58319    0.07027    1.000
    S25      S        0.08290    0.66657    0.00144    1.000
    S26      S        0.08314    0.66651    0.13934    1.000
    Mo27     Mo       0.41656    0.58353    0.06953    1.000
    S28      S        0.33278    0.66689    0.00104    1.000
    S29      S        0.33329    0.66654    0.13900    1.000
    Mo30     Mo       0.66648    0.58318    0.07028    1.000
    S31      S        0.58373    0.66690    0.00105    1.000
    S32      S        0.58284    0.66653    0.13901    1.000
    Mo33     Mo       0.91640    0.58318    0.07046    1.000
    S34      S        0.83327    0.66657    0.00145    1.000
    S35      S        0.83299    0.66651    0.13935    1.000
    Mo36     Mo       0.16637    0.83326    0.07043    1.000
    S37      S        0.08318    0.91676    0.00155    1.000
    S38      S        0.08316    0.91670    0.13946    1.000
    Mo39     Mo       0.41646    0.83344    0.07017    1.000
    S40      S        0.33290    0.91673    0.00137    1.000
    S41      S        0.33314    0.91667    0.13928    1.000
    Mo42     Mo       0.66658    0.83344    0.07018    1.000
    S43      S        0.58324    0.91686    0.00128    1.000
    S44      S        0.58307    0.91655    0.13916    1.000
    Mo45     Mo       0.91650    0.83327    0.07043    1.000
    S46      S        0.83344    0.91674    0.00139    1.000
    S47      S        0.83313    0.91666    0.13929    1.000
    H48      H        0.30085    0.34652    0.34846    1.000
    N49      N        0.36935    0.48241    0.28921    1.000
    H50      H        0.39946    0.54289    0.32137    1.000
    H51      H        0.38359    0.51042    0.24745    1.000
    C52      C        0.31022    0.36452    0.30132    1.000
    O53      O        0.27083    0.28529    0.26483    1.000
