# CIF file generated by openbabel 3.1.0, see https://openbabel.org
data_I
_chemical_name_common ''
_cell_length_a 13.105
_cell_length_b 13.105
_cell_length_c 23.0122
_cell_angle_alpha 90
_cell_angle_beta 90
_cell_angle_gamma 120
loop_
    _atom_site_label
    _atom_site_type_symbol
    _atom_site_fract_x
    _atom_site_fract_y
    _atom_site_fract_z
    _atom_site_occupancy
    Mo0      Mo       0.16720    0.08478    0.07090    1.000
    S1       S        0.08412    0.16794    0.00172    1.000
    S2       S        0.08399    0.16833    0.13970    1.000
    Mo3      Mo       0.41755    0.08478    0.07089    1.000
    S4       S        0.33413    0.16828    0.00209    1.000
    S5       S        0.33411    0.16825    0.13988    1.000
    Mo6      Mo       0.66739    0.08477    0.07066    1.000
    S7       S        0.58381    0.16795    0.00172    1.000
    S8       S        0.58432    0.16834    0.13970    1.000
    Mo9      Mo       0.91735    0.08477    0.07066    1.000
    S10      S        0.83402    0.16806    0.00168    1.000
    S11      S        0.83408    0.16818    0.13955    1.000
    Mo12     Mo       0.16744    0.33482    0.07049    1.000
    S13      S        0.08415    0.41832    0.00165    1.000
    S14      S        0.08407    0.41804    0.13958    1.000
    Mo15     Mo       0.41762    0.33527    0.07094    1.000
    S16      S        0.33432    0.41827    0.00175    1.000
    S17      S        0.33347    0.41820    0.13967    1.000
    Mo18     Mo       0.66735    0.33482    0.07050    1.000
    S19      S        0.58393    0.41827    0.00175    1.000
    S20      S        0.58470    0.41822    0.13967    1.000
    Mo21     Mo       0.91740    0.33482    0.07059    1.000
    S22      S        0.83414    0.41832    0.00165    1.000
    S23      S        0.83395    0.41804    0.13958    1.000
    Mo24     Mo       0.16748    0.58485    0.07074    1.000
    S25      S        0.08412    0.66826    0.00185    1.000
    S26      S        0.08399    0.66800    0.13974    1.000
    Mo27     Mo       0.41758    0.58488    0.07085    1.000
    S28      S        0.33417    0.66818    0.00183    1.000
    S29      S        0.33417    0.66811    0.13980    1.000
    Mo30     Mo       0.66728    0.58488    0.07086    1.000
    S31      S        0.58394    0.66790    0.00166    1.000
    S32      S        0.58436    0.66875    0.13962    1.000
    Mo33     Mo       0.91735    0.58485    0.07074    1.000
    S34      S        0.83398    0.66818    0.00183    1.000
    S35      S        0.83392    0.66811    0.13981    1.000
    Mo36     Mo       0.16741    0.83485    0.07087    1.000
    S37      S        0.08414    0.91820    0.00190    1.000
    S38      S        0.08390    0.91807    0.13982    1.000
    Mo39     Mo       0.41739    0.83479    0.07079    1.000
    S40      S        0.33404    0.91820    0.00190    1.000
    S41      S        0.33415    0.91807    0.13981    1.000
    Mo42     Mo       0.66730    0.83462    0.07049    1.000
    S43      S        0.58387    0.91806    0.00168    1.000
    S44      S        0.58419    0.91802    0.13963    1.000
    Mo45     Mo       0.91737    0.83479    0.07079    1.000
    S46      S        0.83417    0.91806    0.00168    1.000
    S47      S        0.83380    0.91802    0.13963    1.000
    H48      H        0.48265    0.46288    0.34195    1.000
    N49      N        0.40988    0.31809    0.28792    1.000
    H50      H        0.38330    0.26279    0.32226    1.000
    H51      H        0.39211    0.28315    0.24739    1.000
    C52      C        0.46919    0.43728    0.29569    1.000
    O53      O        0.50482    0.51048    0.25623    1.000
