# CIF file generated by openbabel 3.1.0, see https://openbabel.org
data_I
_chemical_name_common ''
_cell_length_a 13.105
_cell_length_b 13.105
_cell_length_c 23.0122
_cell_angle_alpha 90
_cell_angle_beta 90
_cell_angle_gamma 120
loop_
    _atom_site_label
    _atom_site_type_symbol
    _atom_site_fract_x
    _atom_site_fract_y
    _atom_site_fract_z
    _atom_site_occupancy
    Mo0      Mo       0.16655    0.08349    0.06982    1.000
    S1       S        0.08300    0.16662    0.00083    1.000
    S2       S        0.08327    0.16695    0.13877    1.000
    Mo3      Mo       0.41662    0.08347    0.06990    1.000
    S4       S        0.33322    0.16662    0.00083    1.000
    S5       S        0.33328    0.16695    0.13877    1.000
    Mo6      Mo       0.66653    0.08346    0.06993    1.000
    S7       S        0.58325    0.16677    0.00094    1.000
    S8       S        0.58330    0.16693    0.13885    1.000
    Mo9      Mo       0.91645    0.08347    0.06990    1.000
    S10      S        0.83311    0.16677    0.00094    1.000
    S11      S        0.83323    0.16693    0.13884    1.000
    Mo12     Mo       0.16634    0.33341    0.06960    1.000
    S13      S        0.08316    0.41692    0.00077    1.000
    S14      S        0.08341    0.41700    0.13871    1.000
    Mo15     Mo       0.41666    0.33341    0.06960    1.000
    S16      S        0.33335    0.41709    0.00079    1.000
    S17      S        0.33313    0.41667    0.13825    1.000
    Mo18     Mo       0.66660    0.33357    0.06981    1.000
    S19      S        0.58336    0.41692    0.00077    1.000
    S20      S        0.58319    0.41700    0.13871    1.000
    Mo21     Mo       0.91657    0.33357    0.06981    1.000
    S22      S        0.83326    0.41692    0.00085    1.000
    S23      S        0.83331    0.41701    0.13874    1.000
    Mo24     Mo       0.16684    0.58372    0.06972    1.000
    S25      S        0.08335    0.66703    0.00083    1.000
    S26      S        0.08336    0.66687    0.13874    1.000
    Mo27     Mo       0.41679    0.58397    0.06995    1.000
    S28      S        0.33348    0.66706    0.00082    1.000
    S29      S        0.33317    0.66692    0.13888    1.000
    Mo30     Mo       0.66649    0.58372    0.06972    1.000
    S31      S        0.58319    0.66706    0.00082    1.000
    S32      S        0.58336    0.66692    0.13888    1.000
    Mo33     Mo       0.91662    0.58363    0.06978    1.000
    S34      S        0.83329    0.66703    0.00084    1.000
    S35      S        0.83313    0.66687    0.13874    1.000
    Mo36     Mo       0.16661    0.83359    0.06985    1.000
    S37      S        0.08324    0.91687    0.00088    1.000
    S38      S        0.08324    0.91688    0.13880    1.000
    Mo39     Mo       0.41653    0.83341    0.06990    1.000
    S40      S        0.33331    0.91686    0.00093    1.000
    S41      S        0.33321    0.91675    0.13886    1.000
    Mo42     Mo       0.66649    0.83341    0.06990    1.000
    S43      S        0.58324    0.91687    0.00097    1.000
    S44      S        0.58316    0.91670    0.13894    1.000
    Mo45     Mo       0.91659    0.83359    0.06985    1.000
    S46      S        0.83316    0.91685    0.00093    1.000
    S47      S        0.83315    0.91675    0.13886    1.000
    H48      H        0.40771    0.56595    0.35009    1.000
    N49      N        0.33593    0.42300    0.29490    1.000
    H50      H        0.30713    0.36641    0.32873    1.000
    H51      H        0.31962    0.39056    0.25387    1.000
    C52      C        0.39574    0.54201    0.30360    1.000
    O53      O        0.43315    0.61629    0.26464    1.000
