# CIF file generated by openbabel 3.1.0, see https://openbabel.org
data_I
_chemical_name_common ''
_cell_length_a 13.105
_cell_length_b 13.105
_cell_length_c 23.0122
_cell_angle_alpha 90
_cell_angle_beta 90
_cell_angle_gamma 120
loop_
    _atom_site_label
    _atom_site_type_symbol
    _atom_site_fract_x
    _atom_site_fract_y
    _atom_site_fract_z
    _atom_site_occupancy
    Mo0      Mo       0.17222    0.09570    0.07100    1.000
    S1       S        0.08911    0.17893    0.00187    1.000
    S2       S        0.08918    0.17937    0.13983    1.000
    Mo3      Mo       0.42270    0.09570    0.07098    1.000
    S4       S        0.33915    0.17909    0.00218    1.000
    S5       S        0.33918    0.17909    0.13990    1.000
    Mo6      Mo       0.67247    0.09572    0.07086    1.000
    S7       S        0.58904    0.17890    0.00184    1.000
    S8       S        0.58943    0.17939    0.13980    1.000
    Mo9      Mo       0.92248    0.09573    0.07087    1.000
    S10      S        0.83910    0.17896    0.00187    1.000
    S11      S        0.83918    0.17916    0.13976    1.000
    Mo12     Mo       0.17253    0.34580    0.07065    1.000
    S13      S        0.08926    0.42939    0.00183    1.000
    S14      S        0.08916    0.42899    0.13975    1.000
    Mo15     Mo       0.42269    0.34613    0.07103    1.000
    S16      S        0.33953    0.42936    0.00193    1.000
    S17      S        0.33868    0.42911    0.13982    1.000
    Mo18     Mo       0.67251    0.34580    0.07060    1.000
    S19      S        0.58905    0.42936    0.00190    1.000
    S20      S        0.58973    0.42911    0.13977    1.000
    Mo21     Mo       0.92251    0.34579    0.07075    1.000
    S22      S        0.83940    0.42940    0.00181    1.000
    S23      S        0.83904    0.42899    0.13973    1.000
    Mo24     Mo       0.17258    0.59585    0.07098    1.000
    S25      S        0.08928    0.67931    0.00206    1.000
    S26      S        0.08918    0.67915    0.13995    1.000
    Mo27     Mo       0.42273    0.59586    0.07108    1.000
    S28      S        0.33932    0.67912    0.00213    1.000
    S29      S        0.33925    0.67894    0.14007    1.000
    Mo30     Mo       0.67236    0.59586    0.07107    1.000
    S31      S        0.58913    0.67905    0.00190    1.000
    S32      S        0.58950    0.67975    0.13987    1.000
    Mo33     Mo       0.92249    0.59586    0.07097    1.000
    S34      S        0.83904    0.67914    0.00211    1.000
    S35      S        0.83891    0.67894    0.14006    1.000
    Mo36     Mo       0.17255    0.84588    0.07106    1.000
    S37      S        0.08909    0.92905    0.00209    1.000
    S38      S        0.08900    0.92909    0.14001    1.000
    Mo39     Mo       0.42249    0.84567    0.07107    1.000
    S40      S        0.33916    0.92903    0.00209    1.000
    S41      S        0.33931    0.92911    0.14001    1.000
    Mo42     Mo       0.67246    0.84571    0.07079    1.000
    S43      S        0.58891    0.92894    0.00197    1.000
    S44      S        0.58931    0.92906    0.13991    1.000
    Mo45     Mo       0.92239    0.84567    0.07107    1.000
    S46      S        0.83925    0.92896    0.00197    1.000
    S47      S        0.83895    0.92905    0.13991    1.000
    H48      H        0.48698    0.47173    0.34221    1.000
    N49      N        0.41839    0.33213    0.28506    1.000
    H50      H        0.38962    0.27381    0.31817    1.000
    H51      H        0.40286    0.30079    0.24383    1.000
    C52      C        0.47659    0.45048    0.29541    1.000
    O53      O        0.51437    0.52708    0.25755    1.000
