# CIF file generated by openbabel 3.1.0, see https://openbabel.org
data_I
_chemical_name_common ''
_cell_length_a 13.105
_cell_length_b 13.105
_cell_length_c 23.0122
_cell_angle_alpha 90
_cell_angle_beta 90
_cell_angle_gamma 120
loop_
    _atom_site_label
    _atom_site_type_symbol
    _atom_site_fract_x
    _atom_site_fract_y
    _atom_site_fract_z
    _atom_site_occupancy
    Mo0      Mo       0.16505    0.08119    0.07041    1.000
    S1       S        0.08169    0.16449    0.00143    1.000
    S2       S        0.08162    0.16445    0.13935    1.000
    Mo3      Mo       0.41503    0.08118    0.07038    1.000
    S4       S        0.33169    0.16446    0.00141    1.000
    S5       S        0.33183    0.16458    0.13935    1.000
    Mo6      Mo       0.66497    0.08118    0.07036    1.000
    S7       S        0.58165    0.16447    0.00138    1.000
    S8       S        0.58171    0.16458    0.13931    1.000
    Mo9      Mo       0.91502    0.08114    0.07038    1.000
    S10      S        0.83171    0.16457    0.00144    1.000
    S11      S        0.83163    0.16450    0.13930    1.000
    Mo12     Mo       0.16479    0.33113    0.07036    1.000
    S13      S        0.08162    0.41456    0.00144    1.000
    S14      S        0.08156    0.41450    0.13937    1.000
    Mo15     Mo       0.41529    0.33113    0.07031    1.000
    S16      S        0.33172    0.41456    0.00145    1.000
    S17      S        0.33177    0.41458    0.13915    1.000
    Mo18     Mo       0.66496    0.33118    0.07029    1.000
    S19      S        0.58177    0.41463    0.00134    1.000
    S20      S        0.58172    0.41422    0.13933    1.000
    Mo21     Mo       0.91496    0.33127    0.07039    1.000
    S22      S        0.83174    0.41467    0.00142    1.000
    S23      S        0.83152    0.41454    0.13937    1.000
    Mo24     Mo       0.16498    0.58115    0.07042    1.000
    S25      S        0.08164    0.66455    0.00152    1.000
    S26      S        0.08155    0.66445    0.13939    1.000
    Mo27     Mo       0.41531    0.58154    0.07025    1.000
    S28      S        0.33169    0.66465    0.00143    1.000
    S29      S        0.33181    0.66457    0.13937    1.000
    Mo30     Mo       0.66493    0.58109    0.07059    1.000
    S31      S        0.58188    0.66454    0.00135    1.000
    S32      S        0.58192    0.66500    0.13922    1.000
    Mo33     Mo       0.91485    0.58124    0.07045    1.000
    S34      S        0.83149    0.66444    0.00151    1.000
    S35      S        0.83147    0.66441    0.13954    1.000
    Mo36     Mo       0.16502    0.83117    0.07046    1.000
    S37      S        0.08162    0.91442    0.00152    1.000
    S38      S        0.08161    0.91447    0.13939    1.000
    Mo39     Mo       0.41505    0.83128    0.07042    1.000
    S40      S        0.33163    0.91448    0.00146    1.000
    S41      S        0.33174    0.91460    0.13938    1.000
    Mo42     Mo       0.66500    0.83127    0.07026    1.000
    S43      S        0.58161    0.91456    0.00139    1.000
    S44      S        0.58174    0.91457    0.13933    1.000
    Mo45     Mo       0.91486    0.83099    0.07046    1.000
    S46      S        0.83177    0.91452    0.00142    1.000
    S47      S        0.83158    0.91445    0.13936    1.000
    H48      H        0.58156    0.52168    0.34526    1.000
    N49      N        0.45368    0.51226    0.28988    1.000
    H50      H        0.39445    0.48555    0.32256    1.000
    H51      H        0.42701    0.51782    0.24928    1.000
    C52      C        0.56572    0.53410    0.29938    1.000
    O53      O        0.64221    0.56438    0.26176    1.000
