# CIF file generated by openbabel 3.1.0, see https://openbabel.org
data_I
_chemical_name_common ''
_cell_length_a 13.105
_cell_length_b 13.105
_cell_length_c 23.0122
_cell_angle_alpha 90
_cell_angle_beta 90
_cell_angle_gamma 120
loop_
    _atom_site_label
    _atom_site_type_symbol
    _atom_site_fract_x
    _atom_site_fract_y
    _atom_site_fract_z
    _atom_site_occupancy
    Mo0      Mo       0.16753    0.08503    0.07025    1.000
    S1       S        0.08400    0.16798    0.00115    1.000
    S2       S        0.08437    0.16851    0.13921    1.000
    Mo3      Mo       0.41739    0.08495    0.07023    1.000
    S4       S        0.33401    0.16796    0.00114    1.000
    S5       S        0.33419    0.16852    0.13919    1.000
    Mo6      Mo       0.66749    0.08493    0.07029    1.000
    S7       S        0.58417    0.16824    0.00133    1.000
    S8       S        0.58403    0.16825    0.13923    1.000
    Mo9      Mo       0.91761    0.08496    0.07023    1.000
    S10      S        0.83412    0.16825    0.00134    1.000
    S11      S        0.83426    0.16824    0.13924    1.000
    Mo12     Mo       0.16744    0.33483    0.06993    1.000
    S13      S        0.08385    0.41812    0.00115    1.000
    S14      S        0.08435    0.41809    0.13916    1.000
    Mo15     Mo       0.41746    0.33484    0.06990    1.000
    S16      S        0.33400    0.41795    0.00067    1.000
    S17      S        0.33428    0.41843    0.13821    1.000
    Mo18     Mo       0.66746    0.33489    0.07027    1.000
    S19      S        0.58433    0.41812    0.00113    1.000
    S20      S        0.58380    0.41810    0.13913    1.000
    Mo21     Mo       0.91749    0.33490    0.07028    1.000
    S22      S        0.83416    0.41825    0.00135    1.000
    S23      S        0.83412    0.41819    0.13926    1.000
    Mo24     Mo       0.16731    0.58471    0.07013    1.000
    S25      S        0.08402    0.66821    0.00130    1.000
    S26      S        0.08418    0.66811    0.13921    1.000
    Mo27     Mo       0.41744    0.58481    0.06953    1.000
    S28      S        0.33389    0.66842    0.00102    1.000
    S29      S        0.33417    0.66798    0.13893    1.000
    Mo30     Mo       0.66745    0.58472    0.07012    1.000
    S31      S        0.58457    0.66843    0.00100    1.000
    S32      S        0.58387    0.66799    0.13893    1.000
    Mo33     Mo       0.91746    0.58488    0.07031    1.000
    S34      S        0.83424    0.66822    0.00130    1.000
    S35      S        0.83397    0.66811    0.13920    1.000
    Mo36     Mo       0.16746    0.83487    0.07029    1.000
    S37      S        0.08412    0.91821    0.00136    1.000
    S38      S        0.08420    0.91836    0.13924    1.000
    Mo39     Mo       0.41749    0.83499    0.07014    1.000
    S40      S        0.33404    0.91826    0.00129    1.000
    S41      S        0.33420    0.91828    0.13920    1.000
    Mo42     Mo       0.66753    0.83498    0.07013    1.000
    S43      S        0.58421    0.91838    0.00126    1.000
    S44      S        0.58408    0.91811    0.13915    1.000
    Mo45     Mo       0.91745    0.83487    0.07029    1.000
    S46      S        0.83427    0.91827    0.00128    1.000
    S47      S        0.83412    0.91828    0.13920    1.000
    H48      H        0.32761    0.40908    0.35312    1.000
    N49      N        0.38948    0.53216    0.28741    1.000
    H50      H        0.42337    0.59865    0.31654    1.000
    H51      H        0.39869    0.55221    0.24456    1.000
    C52      C        0.33106    0.41728    0.30530    1.000
    O53      O        0.28651    0.33108    0.27294    1.000
