# CIF file generated by openbabel 3.1.0, see https://openbabel.org
data_I
_chemical_name_common ''
_cell_length_a 13.105
_cell_length_b 13.105
_cell_length_c 23.0122
_cell_angle_alpha 90
_cell_angle_beta 90
_cell_angle_gamma 120
loop_
    _atom_site_label
    _atom_site_type_symbol
    _atom_site_fract_x
    _atom_site_fract_y
    _atom_site_fract_z
    _atom_site_occupancy
    Mo0      Mo       0.16535    0.08074    0.07089    1.000
    S1       S        0.08203    0.16394    0.00180    1.000
    S2       S        0.08197    0.16414    0.13974    1.000
    Mo3      Mo       0.41525    0.08077    0.07096    1.000
    S4       S        0.33204    0.16412    0.00197    1.000
    S5       S        0.33200    0.16423    0.13993    1.000
    Mo6      Mo       0.66524    0.08072    0.07080    1.000
    S7       S        0.58178    0.16403    0.00191    1.000
    S8       S        0.58200    0.16414    0.13984    1.000
    Mo9      Mo       0.91532    0.08071    0.07074    1.000
    S10      S        0.83191    0.16411    0.00185    1.000
    S11      S        0.83190    0.16394    0.13973    1.000
    Mo12     Mo       0.16525    0.33071    0.07065    1.000
    S13      S        0.08181    0.41417    0.00189    1.000
    S14      S        0.08183    0.41375    0.13986    1.000
    Mo15     Mo       0.41542    0.33082    0.07095    1.000
    S16      S        0.33220    0.41424    0.00185    1.000
    S17      S        0.33151    0.41356    0.13971    1.000
    Mo18     Mo       0.66513    0.33079    0.07083    1.000
    S19      S        0.58191    0.41416    0.00191    1.000
    S20      S        0.58198    0.41392    0.13995    1.000
    Mo21     Mo       0.91515    0.33069    0.07087    1.000
    S22      S        0.83191    0.41417    0.00194    1.000
    S23      S        0.83170    0.41397    0.13988    1.000
    Mo24     Mo       0.16506    0.58050    0.07100    1.000
    S25      S        0.08196    0.66399    0.00205    1.000
    S26      S        0.08183    0.66392    0.13997    1.000
    Mo27     Mo       0.41563    0.58064    0.07102    1.000
    S28      S        0.33203    0.66401    0.00218    1.000
    S29      S        0.33209    0.66412    0.13988    1.000
    Mo30     Mo       0.66513    0.58064    0.07103    1.000
    S31      S        0.58189    0.66381    0.00183    1.000
    S32      S        0.58255    0.66480    0.13978    1.000
    Mo33     Mo       0.91520    0.58069    0.07098    1.000
    S34      S        0.83180    0.66387    0.00201    1.000
    S35      S        0.83178    0.66398    0.13997    1.000
    Mo36     Mo       0.16530    0.83066    0.07101    1.000
    S37      S        0.08203    0.91393    0.00199    1.000
    S38      S        0.08190    0.91409    0.13988    1.000
    Mo39     Mo       0.41545    0.83101    0.07097    1.000
    S40      S        0.33189    0.91408    0.00203    1.000
    S41      S        0.33200    0.91424    0.13996    1.000
    Mo42     Mo       0.66529    0.83071    0.07058    1.000
    S43      S        0.58171    0.91406    0.00181    1.000
    S44      S        0.58222    0.91411    0.13979    1.000
    Mo45     Mo       0.91526    0.83061    0.07089    1.000
    S46      S        0.83217    0.91403    0.00178    1.000
    S47      S        0.83188    0.91403    0.13971    1.000
    H48      H        0.41803    0.46747    0.33877    1.000
    N49      N        0.36130    0.55640    0.28613    1.000
    H50      H        0.30527    0.55331    0.31710    1.000
    H51      H        0.36384    0.59525    0.24764    1.000
    C52      C        0.43034    0.50714    0.29519    1.000
    O53      O        0.49945    0.50574    0.25941    1.000
