# CIF file generated by openbabel 3.1.0, see https://openbabel.org
data_I
_chemical_name_common ''
_cell_length_a 13.105
_cell_length_b 13.105
_cell_length_c 23.0122
_cell_angle_alpha 90
_cell_angle_beta 90
_cell_angle_gamma 120
loop_
    _atom_site_label
    _atom_site_type_symbol
    _atom_site_fract_x
    _atom_site_fract_y
    _atom_site_fract_z
    _atom_site_occupancy
    Mo0      Mo       0.16752    0.08484    0.07050    1.000
    S1       S        0.08407    0.16802    0.00152    1.000
    S2       S        0.08413    0.16824    0.13938    1.000
    Mo3      Mo       0.41703    0.08484    0.07050    1.000
    S4       S        0.33403    0.16836    0.00154    1.000
    S5       S        0.33396    0.16822    0.13963    1.000
    Mo6      Mo       0.66722    0.08489    0.07042    1.000
    S7       S        0.58367    0.16803    0.00152    1.000
    S8       S        0.58382    0.16823    0.13939    1.000
    Mo9      Mo       0.91738    0.08489    0.07042    1.000
    S10      S        0.83395    0.16818    0.00148    1.000
    S11      S        0.83390    0.16809    0.13941    1.000
    Mo12     Mo       0.16734    0.33484    0.07035    1.000
    S13      S        0.08382    0.41801    0.00145    1.000
    S14      S        0.08392    0.41794    0.13942    1.000
    Mo15     Mo       0.41728    0.33486    0.07067    1.000
    S16      S        0.33397    0.41802    0.00142    1.000
    S17      S        0.33366    0.41809    0.13938    1.000
    Mo18     Mo       0.66721    0.33484    0.07036    1.000
    S19      S        0.58376    0.41802    0.00142    1.000
    S20      S        0.58414    0.41809    0.13938    1.000
    Mo21     Mo       0.91722    0.33474    0.07046    1.000
    S22      S        0.83390    0.41802    0.00145    1.000
    S23      S        0.83373    0.41794    0.13943    1.000
    Mo24     Mo       0.16715    0.58460    0.07045    1.000
    S25      S        0.08382    0.66794    0.00154    1.000
    S26      S        0.08377    0.66783    0.13940    1.000
    Mo27     Mo       0.41689    0.58455    0.07034    1.000
    S28      S        0.33376    0.66809    0.00145    1.000
    S29      S        0.33380    0.66802    0.13940    1.000
    Mo30     Mo       0.66737    0.58456    0.07034    1.000
    S31      S        0.58392    0.66814    0.00151    1.000
    S32      S        0.58390    0.66811    0.13915    1.000
    Mo33     Mo       0.91716    0.58460    0.07046    1.000
    S34      S        0.83404    0.66809    0.00146    1.000
    S35      S        0.83392    0.66802    0.13941    1.000
    Mo36     Mo       0.16716    0.83462    0.07048    1.000
    S37      S        0.08400    0.91807    0.00153    1.000
    S38      S        0.08401    0.91807    0.13945    1.000
    Mo39     Mo       0.41719    0.83480    0.07044    1.000
    S40      S        0.33377    0.91807    0.00153    1.000
    S41      S        0.33377    0.91807    0.13945    1.000
    Mo42     Mo       0.66744    0.83517    0.07038    1.000
    S43      S        0.58388    0.91828    0.00145    1.000
    S44      S        0.58392    0.91833    0.13936    1.000
    Mo45     Mo       0.91732    0.83480    0.07045    1.000
    S46      S        0.83411    0.91828    0.00145    1.000
    S47      S        0.83412    0.91833    0.13937    1.000
    H48      H        0.45100    0.40176    0.34618    1.000
    N49      N        0.52075    0.54149    0.28893    1.000
    H50      H        0.54971    0.60011    0.32193    1.000
    H51      H        0.53604    0.57254    0.24763    1.000
    C52      C        0.46149    0.42305    0.29937    1.000
    O53      O        0.42303    0.34641    0.26155    1.000
