# CIF file generated by openbabel 3.1.0, see https://openbabel.org
data_I
_chemical_name_common ''
_cell_length_a 13.105
_cell_length_b 13.105
_cell_length_c 23.0122
_cell_angle_alpha 90
_cell_angle_beta 90
_cell_angle_gamma 120
loop_
    _atom_site_label
    _atom_site_type_symbol
    _atom_site_fract_x
    _atom_site_fract_y
    _atom_site_fract_z
    _atom_site_occupancy
    Mo0      Mo       0.16633    0.08267    0.06949    1.000
    S1       S        0.08286    0.16593    0.00054    1.000
    S2       S        0.08298    0.16595    0.13853    1.000
    Mo3      Mo       0.41636    0.08262    0.06948    1.000
    S4       S        0.33297    0.16583    0.00045    1.000
    S5       S        0.33304    0.16595    0.13844    1.000
    Mo6      Mo       0.66639    0.08271    0.06956    1.000
    S7       S        0.58313    0.16605    0.00056    1.000
    S8       S        0.58300    0.16596    0.13850    1.000
    Mo9      Mo       0.91629    0.08265    0.06958    1.000
    S10      S        0.83304    0.16605    0.00060    1.000
    S11      S        0.83299    0.16601    0.13856    1.000
    Mo12     Mo       0.16614    0.33252    0.06949    1.000
    S13      S        0.08296    0.41600    0.00058    1.000
    S14      S        0.08301    0.41599    0.13857    1.000
    Mo15     Mo       0.41640    0.33246    0.06933    1.000
    S16      S        0.33291    0.41591    0.00046    1.000
    S17      S        0.33295    0.41550    0.13815    1.000
    Mo18     Mo       0.66644    0.33265    0.06957    1.000
    S19      S        0.58320    0.41604    0.00053    1.000
    S20      S        0.58296    0.41594    0.13850    1.000
    Mo21     Mo       0.91636    0.33268    0.06959    1.000
    S22      S        0.83306    0.41598    0.00059    1.000
    S23      S        0.83309    0.41607    0.13855    1.000
    Mo24     Mo       0.16635    0.58265    0.06956    1.000
    S25      S        0.08301    0.66597    0.00056    1.000
    S26      S        0.08305    0.66605    0.13850    1.000
    Mo27     Mo       0.41628    0.58262    0.06950    1.000
    S28      S        0.33301    0.66598    0.00055    1.000
    S29      S        0.33305    0.66616    0.13850    1.000
    Mo30     Mo       0.66638    0.58266    0.06952    1.000
    S31      S        0.58301    0.66606    0.00062    1.000
    S32      S        0.58297    0.66592    0.13856    1.000
    Mo33     Mo       0.91637    0.58266    0.06954    1.000
    S34      S        0.83305    0.66604    0.00057    1.000
    S35      S        0.83305    0.66602    0.13849    1.000
    Mo36     Mo       0.16636    0.83266    0.06950    1.000
    S37      S        0.08295    0.91597    0.00054    1.000
    S38      S        0.08306    0.91604    0.13847    1.000
    Mo39     Mo       0.41642    0.83273    0.06950    1.000
    S40      S        0.33305    0.91596    0.00051    1.000
    S41      S        0.33301    0.91600    0.13846    1.000
    Mo42     Mo       0.66634    0.83275    0.06961    1.000
    S43      S        0.58313    0.91607    0.00058    1.000
    S44      S        0.58300    0.91611    0.13854    1.000
    Mo45     Mo       0.91632    0.83269    0.06954    1.000
    S46      S        0.83290    0.91600    0.00060    1.000
    S47      S        0.83304    0.91602    0.13855    1.000
    H48      H        0.29014    0.51049    0.25178    1.000
    N49      N        0.43134    0.51050    0.29116    1.000
    H50      H        0.46665    0.50986    0.25223    1.000
    H51      H        0.47405    0.51092    0.32784    1.000
    C52      C        0.32725    0.51075    0.29497    1.000
    O53      O        0.27901    0.51130    0.34056    1.000
