# CIF file generated by openbabel 3.1.0, see https://openbabel.org
data_I
_chemical_name_common ''
_cell_length_a 13.105
_cell_length_b 13.105
_cell_length_c 23.0122
_cell_angle_alpha 90
_cell_angle_beta 90
_cell_angle_gamma 120
loop_
    _atom_site_label
    _atom_site_type_symbol
    _atom_site_fract_x
    _atom_site_fract_y
    _atom_site_fract_z
    _atom_site_occupancy
    Mo0      Mo       0.16690    0.08432    0.06914    1.000
    S1       S        0.08331    0.16741    0.00012    1.000
    S2       S        0.08346    0.16764    0.13809    1.000
    Mo3      Mo       0.41699    0.08427    0.06919    1.000
    S4       S        0.33359    0.16739    0.00014    1.000
    S5       S        0.33363    0.16761    0.13810    1.000
    Mo6      Mo       0.66693    0.08441    0.06929    1.000
    S7       S        0.58373    0.16771    0.00028    1.000
    S8       S        0.58360    0.16772    0.13824    1.000
    Mo9      Mo       0.91676    0.08430    0.06917    1.000
    S10      S        0.83342    0.16773    0.00027    1.000
    S11      S        0.83358    0.16771    0.13822    1.000
    Mo12     Mo       0.16661    0.33414    0.06897    1.000
    S13      S        0.08333    0.41765    0.00016    1.000
    S14      S        0.08357    0.41755    0.13814    1.000
    Mo15     Mo       0.41703    0.33413    0.06899    1.000
    S16      S        0.33347    0.41739    0.99997    1.000
    S17      S        0.33337    0.41724    0.13756    1.000
    Mo18     Mo       0.66699    0.33437    0.06924    1.000
    S19      S        0.58380    0.41764    0.00015    1.000
    S20      S        0.58350    0.41759    0.13815    1.000
    Mo21     Mo       0.91685    0.33437    0.06924    1.000
    S22      S        0.83364    0.41781    0.00027    1.000
    S23      S        0.83364    0.41781    0.13823    1.000
    Mo24     Mo       0.16681    0.58423    0.06918    1.000
    S25      S        0.08356    0.66771    0.00027    1.000
    S26      S        0.08365    0.66771    0.13820    1.000
    Mo27     Mo       0.41690    0.58423    0.06891    1.000
    S28      S        0.33349    0.66768    0.00016    1.000
    S29      S        0.33363    0.66758    0.13807    1.000
    Mo30     Mo       0.66692    0.58426    0.06916    1.000
    S31      S        0.58369    0.66769    0.00012    1.000
    S32      S        0.58353    0.66764    0.13804    1.000
    Mo33     Mo       0.91695    0.58444    0.06926    1.000
    S34      S        0.83366    0.66772    0.00025    1.000
    S35      S        0.83353    0.66774    0.13818    1.000
    Mo36     Mo       0.16695    0.83435    0.06922    1.000
    S37      S        0.08356    0.91762    0.00024    1.000
    S38      S        0.08359    0.91775    0.13816    1.000
    Mo39     Mo       0.41699    0.83439    0.06916    1.000
    S40      S        0.33360    0.91762    0.00021    1.000
    S41      S        0.33362    0.91762    0.13816    1.000
    Mo42     Mo       0.66688    0.83439    0.06912    1.000
    S43      S        0.58364    0.91788    0.00023    1.000
    S44      S        0.58358    0.91766    0.13818    1.000
    Mo45     Mo       0.91688    0.83437    0.06920    1.000
    S46      S        0.83352    0.91766    0.00018    1.000
    S47      S        0.83347    0.91765    0.13813    1.000
    H48      H        0.30865    0.35904    0.26818    1.000
    N49      N        0.39085    0.53665    0.28655    1.000
    H50      H        0.39515    0.55694    0.24395    1.000
    H51      H        0.42131    0.60229    0.31625    1.000
    C52      C        0.33954    0.42206    0.30481    1.000
    O53      O        0.32858    0.39094    0.35580    1.000
