# CIF file generated by openbabel 3.1.0, see https://openbabel.org
data_I
_chemical_name_common ''
_cell_length_a 13.105
_cell_length_b 13.105
_cell_length_c 23.0122
_cell_angle_alpha 90
_cell_angle_beta 90
_cell_angle_gamma 120
loop_
    _atom_site_label
    _atom_site_type_symbol
    _atom_site_fract_x
    _atom_site_fract_y
    _atom_site_fract_z
    _atom_site_occupancy
    Mo0      Mo       0.16657    0.08362    0.06932    1.000
    S1       S        0.08301    0.16675    0.00033    1.000
    S2       S        0.08327    0.16702    0.13828    1.000
    Mo3      Mo       0.41668    0.08362    0.06940    1.000
    S4       S        0.33327    0.16673    0.00033    1.000
    S5       S        0.33329    0.16702    0.13827    1.000
    Mo6      Mo       0.66660    0.08367    0.06944    1.000
    S7       S        0.58333    0.16699    0.00045    1.000
    S8       S        0.58332    0.16704    0.13837    1.000
    Mo9      Mo       0.91650    0.08364    0.06941    1.000
    S10      S        0.83321    0.16701    0.00046    1.000
    S11      S        0.83326    0.16705    0.13838    1.000
    Mo12     Mo       0.16629    0.33347    0.06914    1.000
    S13      S        0.08312    0.41707    0.00035    1.000
    S14      S        0.08332    0.41696    0.13832    1.000
    Mo15     Mo       0.41676    0.33347    0.06912    1.000
    S16      S        0.33329    0.41702    0.00026    1.000
    S17      S        0.33299    0.41636    0.13783    1.000
    Mo18     Mo       0.66666    0.33369    0.06939    1.000
    S19      S        0.58353    0.41708    0.00034    1.000
    S20      S        0.58320    0.41695    0.13830    1.000
    Mo21     Mo       0.91659    0.33370    0.06940    1.000
    S22      S        0.83331    0.41705    0.00045    1.000
    S23      S        0.83331    0.41708    0.13835    1.000
    Mo24     Mo       0.16662    0.58366    0.06938    1.000
    S25      S        0.08333    0.66704    0.00043    1.000
    S26      S        0.08331    0.66704    0.13834    1.000
    Mo27     Mo       0.41666    0.58375    0.06936    1.000
    S28      S        0.33335    0.66707    0.00045    1.000
    S29      S        0.33324    0.66703    0.13838    1.000
    Mo30     Mo       0.66660    0.58367    0.06938    1.000
    S31      S        0.58329    0.66709    0.00045    1.000
    S32      S        0.58333    0.66702    0.13839    1.000
    Mo33     Mo       0.91665    0.58374    0.06938    1.000
    S34      S        0.83327    0.66706    0.00043    1.000
    S35      S        0.83329    0.66705    0.13834    1.000
    Mo36     Mo       0.16665    0.83369    0.06938    1.000
    S37      S        0.08324    0.91695    0.00041    1.000
    S38      S        0.08329    0.91703    0.13831    1.000
    Mo39     Mo       0.41669    0.83371    0.06944    1.000
    S40      S        0.33337    0.91698    0.00046    1.000
    S41      S        0.33330    0.91700    0.13837    1.000
    Mo42     Mo       0.66656    0.83372    0.06945    1.000
    S43      S        0.58329    0.91703    0.00048    1.000
    S44      S        0.58328    0.91704    0.13844    1.000
    Mo45     Mo       0.91658    0.83370    0.06939    1.000
    S46      S        0.83316    0.91700    0.00047    1.000
    S47      S        0.83324    0.91702    0.13837    1.000
    H48      H        0.40724    0.57001    0.24555    1.000
    N49      N        0.33947    0.42188    0.29720    1.000
    H50      H        0.31717    0.36916    0.26190    1.000
    H51      H        0.32090    0.38526    0.33727    1.000
    C52      C        0.39234    0.54160    0.29148    1.000
    O53      O        0.42097    0.61141    0.33204    1.000
