# CIF file generated by openbabel 3.1.0, see https://openbabel.org
data_I
_chemical_name_common ''
_cell_length_a 13.105
_cell_length_b 13.105
_cell_length_c 23.0122
_cell_angle_alpha 90
_cell_angle_beta 90
_cell_angle_gamma 120
loop_
    _atom_site_label
    _atom_site_type_symbol
    _atom_site_fract_x
    _atom_site_fract_y
    _atom_site_fract_z
    _atom_site_occupancy
    Mo0      Mo       0.16573    0.08174    0.06959    1.000
    S1       S        0.08219    0.16498    0.00070    1.000
    S2       S        0.08247    0.16504    0.13868    1.000
    Mo3      Mo       0.41579    0.08174    0.06958    1.000
    S4       S        0.33246    0.16516    0.00059    1.000
    S5       S        0.33232    0.16485    0.13847    1.000
    Mo6      Mo       0.66574    0.08170    0.06980    1.000
    S7       S        0.58256    0.16498    0.00070    1.000
    S8       S        0.58234    0.16504    0.13868    1.000
    Mo9      Mo       0.91573    0.08170    0.06980    1.000
    S10      S        0.83234    0.16492    0.00082    1.000
    S11      S        0.83239    0.16501    0.13878    1.000
    Mo12     Mo       0.16559    0.33165    0.06965    1.000
    S13      S        0.08224    0.41498    0.00073    1.000
    S14      S        0.08231    0.41496    0.13869    1.000
    Mo15     Mo       0.41576    0.33174    0.06961    1.000
    S16      S        0.33240    0.41517    0.00069    1.000
    S17      S        0.33223    0.41511    0.13854    1.000
    Mo18     Mo       0.66582    0.33164    0.06965    1.000
    S19      S        0.58254    0.41517    0.00069    1.000
    S20      S        0.58263    0.41507    0.13855    1.000
    Mo21     Mo       0.91568    0.33159    0.06975    1.000
    S22      S        0.83251    0.41498    0.00073    1.000
    S23      S        0.83241    0.41495    0.13869    1.000
    Mo24     Mo       0.16563    0.58165    0.06973    1.000
    S25      S        0.08238    0.66499    0.00074    1.000
    S26      S        0.08241    0.66504    0.13871    1.000
    Mo27     Mo       0.41569    0.58183    0.06968    1.000
    S28      S        0.33234    0.66512    0.00076    1.000
    S29      S        0.33229    0.66510    0.13869    1.000
    Mo30     Mo       0.66589    0.58180    0.06970    1.000
    S31      S        0.58256    0.66534    0.00086    1.000
    S32      S        0.58241    0.66506    0.13878    1.000
    Mo33     Mo       0.91579    0.58165    0.06973    1.000
    S34      S        0.83254    0.66511    0.00077    1.000
    S35      S        0.83258    0.66509    0.13870    1.000
    Mo36     Mo       0.16574    0.83170    0.06970    1.000
    S37      S        0.08235    0.91496    0.00070    1.000
    S38      S        0.08254    0.91517    0.13866    1.000
    Mo39     Mo       0.41572    0.83177    0.06974    1.000
    S40      S        0.33238    0.91496    0.00070    1.000
    S41      S        0.33241    0.91518    0.13865    1.000
    Mo42     Mo       0.66585    0.83193    0.06988    1.000
    S43      S        0.58247    0.91508    0.00084    1.000
    S44      S        0.58232    0.91514    0.13878    1.000
    Mo45     Mo       0.91581    0.83176    0.06975    1.000
    S46      S        0.83238    0.91508    0.00085    1.000
    S47      S        0.83259    0.91513    0.13879    1.000
    H48      H        0.39524    0.29795    0.24761    1.000
    N49      N        0.47853    0.45639    0.29134    1.000
    H50      H        0.49951    0.50214    0.25368    1.000
    H51      H        0.50348    0.50104    0.32934    1.000
    C52      C        0.41716    0.33584    0.29180    1.000
    O53      O        0.38863    0.27475    0.33578    1.000
