# CIF file generated by openbabel 3.1.0, see https://openbabel.org
data_I
_chemical_name_common ''
_cell_length_a 13.105
_cell_length_b 13.105
_cell_length_c 23.0122
_cell_angle_alpha 90
_cell_angle_beta 90
_cell_angle_gamma 120
loop_
    _atom_site_label
    _atom_site_type_symbol
    _atom_site_fract_x
    _atom_site_fract_y
    _atom_site_fract_z
    _atom_site_occupancy
    Mo0      Mo       0.16551    0.08180    0.06943    1.000
    S1       S        0.08217    0.16509    0.00042    1.000
    S2       S        0.08211    0.16508    0.13839    1.000
    Mo3      Mo       0.41552    0.08181    0.06945    1.000
    S4       S        0.33220    0.16516    0.00048    1.000
    S5       S        0.33210    0.16503    0.13847    1.000
    Mo6      Mo       0.66550    0.08176    0.06943    1.000
    S7       S        0.58220    0.16517    0.00048    1.000
    S8       S        0.58220    0.16505    0.13843    1.000
    Mo9      Mo       0.91550    0.08175    0.06941    1.000
    S10      S        0.83218    0.16515    0.00046    1.000
    S11      S        0.83220    0.16510    0.13837    1.000
    Mo12     Mo       0.16531    0.33167    0.06939    1.000
    S13      S        0.08215    0.41511    0.00042    1.000
    S14      S        0.08216    0.41507    0.13843    1.000
    Mo15     Mo       0.41534    0.33166    0.06950    1.000
    S16      S        0.33209    0.41501    0.00051    1.000
    S17      S        0.33175    0.41480    0.13832    1.000
    Mo18     Mo       0.66568    0.33171    0.06948    1.000
    S19      S        0.58219    0.41505    0.00060    1.000
    S20      S        0.58230    0.41512    0.13833    1.000
    Mo21     Mo       0.91555    0.33181    0.06944    1.000
    S22      S        0.83218    0.41510    0.00046    1.000
    S23      S        0.83229    0.41513    0.13845    1.000
    Mo24     Mo       0.16551    0.58170    0.06944    1.000
    S25      S        0.08220    0.66510    0.00048    1.000
    S26      S        0.08222    0.66511    0.13839    1.000
    Mo27     Mo       0.41545    0.58170    0.06946    1.000
    S28      S        0.33219    0.66506    0.00048    1.000
    S29      S        0.33217    0.66506    0.13846    1.000
    Mo30     Mo       0.66560    0.58193    0.06939    1.000
    S31      S        0.58214    0.66512    0.00045    1.000
    S32      S        0.58227    0.66530    0.13836    1.000
    Mo33     Mo       0.91551    0.58174    0.06944    1.000
    S34      S        0.83222    0.66514    0.00046    1.000
    S35      S        0.83223    0.66517    0.13842    1.000
    Mo36     Mo       0.16553    0.83179    0.06943    1.000
    S37      S        0.08220    0.91515    0.00045    1.000
    S38      S        0.08218    0.91514    0.13839    1.000
    Mo39     Mo       0.41555    0.83176    0.06943    1.000
    S40      S        0.33222    0.91515    0.00047    1.000
    S41      S        0.33220    0.91509    0.13840    1.000
    Mo42     Mo       0.66556    0.83188    0.06938    1.000
    S43      S        0.58218    0.91514    0.00042    1.000
    S44      S        0.58221    0.91510    0.13840    1.000
    Mo45     Mo       0.91551    0.83183    0.06943    1.000
    S46      S        0.83219    0.91513    0.00041    1.000
    S47      S        0.83216    0.91513    0.13839    1.000
    H48      H        0.43226    0.53308    0.25305    1.000
    N49      N        0.55813    0.50582    0.29210    1.000
    H50      H        0.59515    0.50806    0.25324    1.000
    H51      H        0.58921    0.48613    0.32809    1.000
    C52      C        0.45872    0.51490    0.29569    1.000
    O53      O        0.40423    0.50526    0.34063    1.000
