# CIF file generated by openbabel 3.1.0, see https://openbabel.org
data_I
_chemical_name_common ''
_cell_length_a 13.105
_cell_length_b 13.105
_cell_length_c 23.0122
_cell_angle_alpha 90
_cell_angle_beta 90
_cell_angle_gamma 120
loop_
    _atom_site_label
    _atom_site_type_symbol
    _atom_site_fract_x
    _atom_site_fract_y
    _atom_site_fract_z
    _atom_site_occupancy
    Mo0      Mo       0.16689    0.08347    0.06918    1.000
    S1       S        0.08340    0.16671    0.00024    1.000
    S2       S        0.08358    0.16681    0.13824    1.000
    Mo3      Mo       0.41697    0.08347    0.06914    1.000
    S4       S        0.33348    0.16658    0.00009    1.000
    S5       S        0.33368    0.16687    0.13808    1.000
    Mo6      Mo       0.66698    0.08351    0.06930    1.000
    S7       S        0.58375    0.16677    0.00024    1.000
    S8       S        0.58356    0.16679    0.13819    1.000
    Mo9      Mo       0.91688    0.08347    0.06928    1.000
    S10      S        0.83353    0.16678    0.00032    1.000
    S11      S        0.83356    0.16680    0.13829    1.000
    Mo12     Mo       0.16675    0.33338    0.06913    1.000
    S13      S        0.08344    0.41677    0.00026    1.000
    S14      S        0.08356    0.41679    0.13824    1.000
    Mo15     Mo       0.41697    0.33334    0.06887    1.000
    S16      S        0.33346    0.41681    0.00000    1.000
    S17      S        0.33388    0.41688    0.13754    1.000
    Mo18     Mo       0.66699    0.33342    0.06920    1.000
    S19      S        0.58381    0.41684    0.00013    1.000
    S20      S        0.58347    0.41676    0.13810    1.000
    Mo21     Mo       0.91687    0.33344    0.06927    1.000
    S22      S        0.83365    0.41680    0.00024    1.000
    S23      S        0.83360    0.41688    0.13819    1.000
    Mo24     Mo       0.16698    0.58349    0.06922    1.000
    S25      S        0.08360    0.66678    0.00025    1.000
    S26      S        0.08364    0.66683    0.13819    1.000
    Mo27     Mo       0.41707    0.58373    0.06898    1.000
    S28      S        0.33358    0.66700    0.00016    1.000
    S29      S        0.33377    0.66696    0.13815    1.000
    Mo30     Mo       0.66694    0.58356    0.06914    1.000
    S31      S        0.58378    0.66705    0.00014    1.000
    S32      S        0.58356    0.66687    0.13813    1.000
    Mo33     Mo       0.91695    0.58348    0.06922    1.000
    S34      S        0.83367    0.66685    0.00022    1.000
    S35      S        0.83355    0.66679    0.13816    1.000
    Mo36     Mo       0.16693    0.83347    0.06919    1.000
    S37      S        0.08355    0.91677    0.00023    1.000
    S38      S        0.08362    0.91680    0.13817    1.000
    Mo39     Mo       0.41701    0.83361    0.06916    1.000
    S40      S        0.33358    0.91681    0.00016    1.000
    S41      S        0.33359    0.91686    0.13812    1.000
    Mo42     Mo       0.66699    0.83359    0.06921    1.000
    S43      S        0.58376    0.91704    0.00025    1.000
    S44      S        0.58361    0.91686    0.13821    1.000
    Mo45     Mo       0.91694    0.83347    0.06921    1.000
    S46      S        0.83365    0.91688    0.00025    1.000
    S47      S        0.83362    0.91674    0.13820    1.000
    H48      H        0.23619    0.41573    0.25604    1.000
    N49      N        0.37942    0.41576    0.29314    1.000
    H50      H        0.41256    0.41469    0.25365    1.000
    H51      H        0.42433    0.41744    0.32921    1.000
    C52      C        0.27626    0.41741    0.29858    1.000
    O53      O        0.23154    0.42028    0.34494    1.000
