# CIF file generated by openbabel 3.1.0, see https://openbabel.org
data_I
_chemical_name_common ''
_cell_length_a 13.105
_cell_length_b 13.105
_cell_length_c 23.0122
_cell_angle_alpha 90
_cell_angle_beta 90
_cell_angle_gamma 120
loop_
    _atom_site_label
    _atom_site_type_symbol
    _atom_site_fract_x
    _atom_site_fract_y
    _atom_site_fract_z
    _atom_site_occupancy
    Mo0      Mo       0.16631    0.08269    0.06897    1.000
    S1       S        0.08274    0.16584    0.00000    1.000
    S2       S        0.08306    0.16613    0.13798    1.000
    Mo3      Mo       0.41634    0.08265    0.06909    1.000
    S4       S        0.33300    0.16585    0.99999    1.000
    S5       S        0.33300    0.16613    0.13797    1.000
    Mo6      Mo       0.66627    0.08264    0.06920    1.000
    S7       S        0.58301    0.16586    0.00015    1.000
    S8       S        0.58296    0.16605    0.13809    1.000
    Mo9      Mo       0.91621    0.08263    0.06911    1.000
    S10      S        0.83277    0.16585    0.00016    1.000
    S11      S        0.83298    0.16604    0.13809    1.000
    Mo12     Mo       0.16608    0.33263    0.06880    1.000
    S13      S        0.08280    0.41610    0.00000    1.000
    S14      S        0.08292    0.41593    0.13799    1.000
    Mo15     Mo       0.41643    0.33262    0.06880    1.000
    S16      S        0.33304    0.41623    0.99990    1.000
    S17      S        0.33283    0.41575    0.13745    1.000
    Mo18     Mo       0.66629    0.33263    0.06904    1.000
    S19      S        0.58318    0.41610    1.00000    1.000
    S20      S        0.58287    0.41591    0.13799    1.000
    Mo21     Mo       0.91622    0.33262    0.06905    1.000
    S22      S        0.83294    0.41600    0.00008    1.000
    S23      S        0.83292    0.41596    0.13802    1.000
    Mo24     Mo       0.16631    0.58268    0.06908    1.000
    S25      S        0.08297    0.66603    0.00013    1.000
    S26      S        0.08295    0.66598    0.13806    1.000
    Mo27     Mo       0.41641    0.58293    0.06903    1.000
    S28      S        0.33305    0.66623    0.00014    1.000
    S29      S        0.33295    0.66604    0.13814    1.000
    Mo30     Mo       0.66626    0.58267    0.06908    1.000
    S31      S        0.58308    0.66622    0.00014    1.000
    S32      S        0.58298    0.66601    0.13814    1.000
    Mo33     Mo       0.91628    0.58265    0.06909    1.000
    S34      S        0.83297    0.66602    0.00014    1.000
    S35      S        0.83294    0.66596    0.13806    1.000
    Mo36     Mo       0.16631    0.83267    0.06910    1.000
    S37      S        0.08293    0.91592    0.00010    1.000
    S38      S        0.08303    0.91610    0.13802    1.000
    Mo39     Mo       0.41634    0.83275    0.06918    1.000
    S40      S        0.33300    0.91598    0.00015    1.000
    S41      S        0.33292    0.91606    0.13808    1.000
    Mo42     Mo       0.66632    0.83273    0.06919    1.000
    S43      S        0.58301    0.91607    0.00023    1.000
    S44      S        0.58298    0.91603    0.13819    1.000
    Mo45     Mo       0.91630    0.83266    0.06910    1.000
    S46      S        0.83290    0.91597    0.00016    1.000
    S47      S        0.83305    0.91602    0.13809    1.000
    H48      H        0.38348    0.52882    0.25793    1.000
    N49      N        0.30011    0.36204    0.29344    1.000
    H50      H        0.28006    0.32476    0.25358    1.000
    H51      H        0.27574    0.30969    0.32899    1.000
    C52      C        0.36177    0.48190    0.30003    1.000
    O53      O        0.39046    0.53334    0.34689    1.000
