# CIF file generated by openbabel 3.1.0, see https://openbabel.org
data_I
_chemical_name_common ''
_cell_length_a 13.105
_cell_length_b 13.105
_cell_length_c 23.0122
_cell_angle_alpha 90
_cell_angle_beta 90
_cell_angle_gamma 120
loop_
    _atom_site_label
    _atom_site_type_symbol
    _atom_site_fract_x
    _atom_site_fract_y
    _atom_site_fract_z
    _atom_site_occupancy
    Mo0      Mo       0.16743    0.08544    0.06943    1.000
    S1       S        0.08415    0.16872    0.00040    1.000
    S2       S        0.08406    0.16878    0.13836    1.000
    Mo3      Mo       0.41762    0.08544    0.06943    1.000
    S4       S        0.33413    0.16866    0.00047    1.000
    S5       S        0.33420    0.16881    0.13840    1.000
    Mo6      Mo       0.66749    0.08540    0.06934    1.000
    S7       S        0.58417    0.16873    0.00040    1.000
    S8       S        0.58432    0.16876    0.13836    1.000
    Mo9      Mo       0.91751    0.08540    0.06934    1.000
    S10      S        0.83418    0.16876    0.00039    1.000
    S11      S        0.83416    0.16871    0.13828    1.000
    Mo12     Mo       0.16738    0.33536    0.06933    1.000
    S13      S        0.08418    0.41878    0.00038    1.000
    S14      S        0.08417    0.41876    0.13831    1.000
    Mo15     Mo       0.41749    0.33542    0.06931    1.000
    S16      S        0.33409    0.41865    0.00036    1.000
    S17      S        0.33412    0.41884    0.13823    1.000
    Mo18     Mo       0.66758    0.33535    0.06935    1.000
    S19      S        0.58417    0.41866    0.00038    1.000
    S20      S        0.58427    0.41881    0.13825    1.000
    Mo21     Mo       0.91753    0.33545    0.06935    1.000
    S22      S        0.83420    0.41878    0.00039    1.000
    S23      S        0.83421    0.41875    0.13832    1.000
    Mo24     Mo       0.16755    0.58544    0.06936    1.000
    S25      S        0.08421    0.66882    0.00044    1.000
    S26      S        0.08417    0.66872    0.13834    1.000
    Mo27     Mo       0.41749    0.58550    0.06925    1.000
    S28      S        0.33414    0.66877    0.00034    1.000
    S29      S        0.33426    0.66878    0.13831    1.000
    Mo30     Mo       0.66760    0.58551    0.06927    1.000
    S31      S        0.58418    0.66873    0.00026    1.000
    S32      S        0.58439    0.66923    0.13799    1.000
    Mo33     Mo       0.91749    0.58544    0.06937    1.000
    S34      S        0.83422    0.66876    0.00036    1.000
    S35      S        0.83413    0.66879    0.13833    1.000
    Mo36     Mo       0.16753    0.83545    0.06941    1.000
    S37      S        0.08419    0.91879    0.00045    1.000
    S38      S        0.08406    0.91871    0.13834    1.000
    Mo39     Mo       0.41757    0.83541    0.06933    1.000
    S40      S        0.33420    0.91880    0.00045    1.000
    S41      S        0.33426    0.91870    0.13834    1.000
    Mo42     Mo       0.66765    0.83569    0.06913    1.000
    S43      S        0.58413    0.91884    0.00027    1.000
    S44      S        0.58426    0.91873    0.13824    1.000
    Mo45     Mo       0.91744    0.83541    0.06934    1.000
    S46      S        0.83432    0.91883    0.00028    1.000
    S47      S        0.83407    0.91873    0.13825    1.000
    H48      H        0.54127    0.57108    0.25280    1.000
    N49      N        0.45400    0.40905    0.29304    1.000
    H50      H        0.43604    0.36710    0.25435    1.000
    H51      H        0.42601    0.36084    0.32994    1.000
    C52      C        0.51591    0.52941    0.29613    1.000
    O53      O        0.54149    0.58670    0.34133    1.000
