# CIF file generated by openbabel 3.1.0, see https://openbabel.org
data_I
_chemical_name_common ''
_cell_length_a 13.105
_cell_length_b 13.105
_cell_length_c 23.0122
_cell_angle_alpha 90
_cell_angle_beta 90
_cell_angle_gamma 120
loop_
    _atom_site_label
    _atom_site_type_symbol
    _atom_site_fract_x
    _atom_site_fract_y
    _atom_site_fract_z
    _atom_site_occupancy
    Mo0      Mo       0.16600    0.08246    0.07005    1.000
    S1       S        0.08277    0.16562    0.00096    1.000
    S2       S        0.08279    0.16593    0.13892    1.000
    Mo3      Mo       0.41627    0.08247    0.07004    1.000
    S4       S        0.33276    0.16572    0.00112    1.000
    S5       S        0.33300    0.16616    0.13888    1.000
    Mo6      Mo       0.66609    0.08243    0.06995    1.000
    S7       S        0.58266    0.16565    0.00095    1.000
    S8       S        0.58295    0.16595    0.13891    1.000
    Mo9      Mo       0.91614    0.08242    0.06996    1.000
    S10      S        0.83270    0.16558    0.00094    1.000
    S11      S        0.83278    0.16577    0.13887    1.000
    Mo12     Mo       0.16598    0.33239    0.06978    1.000
    S13      S        0.08271    0.41575    0.00087    1.000
    S14      S        0.08269    0.41563    0.13883    1.000
    Mo15     Mo       0.41630    0.33282    0.06979    1.000
    S16      S        0.33278    0.41604    0.00086    1.000
    S17      S        0.33254    0.41595    0.13863    1.000
    Mo18     Mo       0.66620    0.33240    0.06978    1.000
    S19      S        0.58304    0.41606    0.00086    1.000
    S20      S        0.58318    0.41596    0.13862    1.000
    Mo21     Mo       0.91606    0.33234    0.06985    1.000
    S22      S        0.83283    0.41576    0.00087    1.000
    S23      S        0.83272    0.41563    0.13882    1.000
    Mo24     Mo       0.16611    0.58237    0.06992    1.000
    S25      S        0.08282    0.66582    0.00102    1.000
    S26      S        0.08270    0.66559    0.13889    1.000
    Mo27     Mo       0.41622    0.58270    0.06988    1.000
    S28      S        0.33282    0.66599    0.00098    1.000
    S29      S        0.33273    0.66569    0.13896    1.000
    Mo30     Mo       0.66629    0.58272    0.06988    1.000
    S31      S        0.58296    0.66614    0.00095    1.000
    S32      S        0.58290    0.66600    0.13888    1.000
    Mo33     Mo       0.91606    0.58238    0.06992    1.000
    S34      S        0.83298    0.66600    0.00098    1.000
    S35      S        0.83276    0.66568    0.13896    1.000
    Mo36     Mo       0.16614    0.83245    0.07004    1.000
    S37      S        0.08283    0.91581    0.00111    1.000
    S38      S        0.08284    0.91579    0.13902    1.000
    Mo39     Mo       0.41611    0.83247    0.07006    1.000
    S40      S        0.33279    0.91580    0.00110    1.000
    S41      S        0.33278    0.91580    0.13902    1.000
    Mo42     Mo       0.66623    0.83265    0.06998    1.000
    S43      S        0.58271    0.91580    0.00103    1.000
    S44      S        0.58285    0.91590    0.13899    1.000
    Mo45     Mo       0.91617    0.83247    0.07006    1.000
    S46      S        0.83290    0.91579    0.00104    1.000
    S47      S        0.83284    0.91587    0.13899    1.000
    H48      H        0.49683    0.49037    0.24861    1.000
    N49      N        0.41293    0.32694    0.28776    1.000
    H50      H        0.39371    0.28514    0.24896    1.000
    H51      H        0.38697    0.27827    0.32456    1.000
    C52      C        0.47336    0.44725    0.29164    1.000
    O53      O        0.49959    0.50307    0.33730    1.000
