# CIF file generated by openbabel 3.1.0, see https://openbabel.org
data_I
_chemical_name_common ''
_cell_length_a 13.105
_cell_length_b 13.105
_cell_length_c 23.0122
_cell_angle_alpha 90
_cell_angle_beta 90
_cell_angle_gamma 120
loop_
    _atom_site_label
    _atom_site_type_symbol
    _atom_site_fract_x
    _atom_site_fract_y
    _atom_site_fract_z
    _atom_site_occupancy
    Mo0      Mo       0.16605    0.08337    0.06891    1.000
    S1       S        0.08271    0.16671    0.99998    1.000
    S2       S        0.08278    0.16676    0.13788    1.000
    Mo3      Mo       0.41614    0.08346    0.06888    1.000
    S4       S        0.33275    0.16679    0.99998    1.000
    S5       S        0.33271    0.16664    0.13787    1.000
    Mo6      Mo       0.66616    0.08354    0.06895    1.000
    S7       S        0.58288    0.16689    0.99998    1.000
    S8       S        0.58276    0.16680    0.13788    1.000
    Mo9      Mo       0.91610    0.08351    0.06896    1.000
    S10      S        0.83278    0.16683    0.99998    1.000
    S11      S        0.83284    0.16694    0.13790    1.000
    Mo12     Mo       0.16606    0.33341    0.06890    1.000
    S13      S        0.08261    0.41649    0.99981    1.000
    S14      S        0.08285    0.41694    0.13778    1.000
    Mo15     Mo       0.41609    0.33340    0.06896    1.000
    S16      S        0.33271    0.41658    0.99993    1.000
    S17      S        0.33267    0.41677    0.13792    1.000
    Mo18     Mo       0.66617    0.33348    0.06896    1.000
    S19      S        0.58276    0.41668    0.99999    1.000
    S20      S        0.58277    0.41668    0.13794    1.000
    Mo21     Mo       0.91613    0.33350    0.06890    1.000
    S22      S        0.83277    0.41681    0.99995    1.000
    S23      S        0.83290    0.41685    0.13788    1.000
    Mo24     Mo       0.16595    0.58334    0.06857    1.000
    S25      S        0.08262    0.66680    0.99978    1.000
    S26      S        0.08294    0.66675    0.13773    1.000
    Mo27     Mo       0.41590    0.58329    0.06876    1.000
    S28      S        0.33284    0.66674    0.99963    1.000
    S29      S        0.33240    0.66680    0.13730    1.000
    Mo30     Mo       0.66619    0.58328    0.06892    1.000
    S31      S        0.58287    0.66679    0.99997    1.000
    S32      S        0.58275    0.66677    0.13768    1.000
    Mo33     Mo       0.91615    0.58346    0.06889    1.000
    S34      S        0.83277    0.66677    0.99998    1.000
    S35      S        0.83287    0.66676    0.13789    1.000
    Mo36     Mo       0.16614    0.83343    0.06880    1.000
    S37      S        0.08268    0.91675    0.99993    1.000
    S38      S        0.08283    0.91667    0.13784    1.000
    Mo39     Mo       0.41617    0.83356    0.06865    1.000
    S40      S        0.33282    0.91694    0.99980    1.000
    S41      S        0.33282    0.91670    0.13776    1.000
    Mo42     Mo       0.66621    0.83370    0.06889    1.000
    S43      S        0.58305    0.91705    0.99987    1.000
    S44      S        0.58263    0.91678    0.13786    1.000
    Mo45     Mo       0.91609    0.83345    0.06893    1.000
    S46      S        0.83283    0.91689    0.99997    1.000
    S47      S        0.83280    0.91687    0.13791    1.000
    H48      H        0.37048    0.66444    0.25838    1.000
    N49      N        0.51209    0.66189    0.29566    1.000
    H50      H        0.54641    0.66266    0.25618    1.000
    H51      H        0.55561    0.66119    0.33181    1.000
    C52      C        0.40887    0.66346    0.30095    1.000
    O53      O        0.36236    0.66353    0.34723    1.000
