# CIF file generated by openbabel 3.1.0, see https://openbabel.org
data_I
_chemical_name_common ''
_cell_length_a 13.105
_cell_length_b 13.105
_cell_length_c 23.0122
_cell_angle_alpha 90
_cell_angle_beta 90
_cell_angle_gamma 120
loop_
    _atom_site_label
    _atom_site_type_symbol
    _atom_site_fract_x
    _atom_site_fract_y
    _atom_site_fract_z
    _atom_site_occupancy
    Mo0      Mo       0.16703    0.08457    0.06984    1.000
    S1       S        0.08356    0.16772    0.00083    1.000
    S2       S        0.08371    0.16796    0.13877    1.000
    Mo3      Mo       0.41711    0.08457    0.06984    1.000
    S4       S        0.33367    0.16778    0.00086    1.000
    S5       S        0.33374    0.16790    0.13884    1.000
    Mo6      Mo       0.66712    0.08458    0.06986    1.000
    S7       S        0.58372    0.16772    0.00083    1.000
    S8       S        0.58381    0.16795    0.13877    1.000
    Mo9      Mo       0.91702    0.08458    0.06986    1.000
    S10      S        0.83371    0.16786    0.00085    1.000
    S11      S        0.83379    0.16803    0.13882    1.000
    Mo12     Mo       0.16684    0.33447    0.06966    1.000
    S13      S        0.08363    0.41796    0.00076    1.000
    S14      S        0.08364    0.41783    0.13873    1.000
    Mo15     Mo       0.41703    0.33448    0.06973    1.000
    S16      S        0.33362    0.41777    0.00071    1.000
    S17      S        0.33326    0.41769    0.13855    1.000
    Mo18     Mo       0.66719    0.33446    0.06967    1.000
    S19      S        0.58372    0.41777    0.00072    1.000
    S20      S        0.58399    0.41768    0.13856    1.000
    Mo21     Mo       0.91706    0.33457    0.06977    1.000
    S22      S        0.83388    0.41796    0.00076    1.000
    S23      S        0.83377    0.41784    0.13873    1.000
    Mo24     Mo       0.16702    0.58455    0.06981    1.000
    S25      S        0.08378    0.66800    0.00087    1.000
    S26      S        0.08374    0.66791    0.13879    1.000
    Mo27     Mo       0.41682    0.58441    0.06969    1.000
    S28      S        0.33366    0.66795    0.00083    1.000
    S29      S        0.33365    0.66778    0.13878    1.000
    Mo30     Mo       0.66714    0.58440    0.06970    1.000
    S31      S        0.58372    0.66788    0.00082    1.000
    S32      S        0.58365    0.66775    0.13858    1.000
    Mo33     Mo       0.91710    0.58455    0.06981    1.000
    S34      S        0.83384    0.66795    0.00084    1.000
    S35      S        0.83369    0.66778    0.13879    1.000
    Mo36     Mo       0.16709    0.83462    0.06986    1.000
    S37      S        0.08371    0.91791    0.00089    1.000
    S38      S        0.08373    0.91793    0.13883    1.000
    Mo39     Mo       0.41707    0.83457    0.06986    1.000
    S40      S        0.33375    0.91791    0.00089    1.000
    S41      S        0.33376    0.91793    0.13883    1.000
    Mo42     Mo       0.66712    0.83470    0.06984    1.000
    S43      S        0.58376    0.91793    0.00090    1.000
    S44      S        0.58375    0.91796    0.13884    1.000
    Mo45     Mo       0.91705    0.83457    0.06986    1.000
    S46      S        0.83372    0.91793    0.00090    1.000
    S47      S        0.83375    0.91796    0.13884    1.000
    H48      H        0.43719    0.37740    0.24904    1.000
    N49      N        0.52057    0.53952    0.28937    1.000
    H50      H        0.54032    0.58211    0.25077    1.000
    H51      H        0.54612    0.58735    0.32644    1.000
    C52      C        0.46001    0.41911    0.29240    1.000
    O53      O        0.43311    0.36195    0.33766    1.000
