# CIF file generated by openbabel 3.1.0, see https://openbabel.org
data_I
_chemical_name_common ''
_cell_length_a 13.105
_cell_length_b 13.105
_cell_length_c 23.0122
_cell_angle_alpha 90
_cell_angle_beta 90
_cell_angle_gamma 120
loop_
    _atom_site_label
    _atom_site_type_symbol
    _atom_site_fract_x
    _atom_site_fract_y
    _atom_site_fract_z
    _atom_site_occupancy
    Mo0      Mo       0.16364    0.08414    0.06662    1.000
    S1       S        0.07999    0.16714    0.99757    1.000
    S2       S        0.08027    0.16753    0.13553    1.000
    Mo3      Mo       0.41329    0.08407    0.06664    1.000
    S4       S        0.33011    0.16729    0.99760    1.000
    S5       S        0.33013    0.16745    0.13571    1.000
    Mo6      Mo       0.66337    0.08402    0.06659    1.000
    S7       S        0.57994    0.16722    0.99761    1.000
    S8       S        0.58003    0.16740    0.13558    1.000
    Mo9      Mo       0.91348    0.08397    0.06660    1.000
    S10      S        0.83007    0.16727    0.99765    1.000
    S11      S        0.83010    0.16729    0.13554    1.000
    Mo12     Mo       0.16335    0.33395    0.06638    1.000
    S13      S        0.08002    0.41739    0.99754    1.000
    S14      S        0.08018    0.41725    0.13549    1.000
    Mo15     Mo       0.41337    0.33382    0.06663    1.000
    S16      S        0.33011    0.41712    0.99744    1.000
    S17      S        0.32978    0.41730    0.13520    1.000
    Mo18     Mo       0.66347    0.33393    0.06647    1.000
    S19      S        0.58010    0.41729    0.99755    1.000
    S20      S        0.58027    0.41713    0.13532    1.000
    Mo21     Mo       0.91346    0.33396    0.06659    1.000
    S22      S        0.83022    0.41735    0.99762    1.000
    S23      S        0.83000    0.41714    0.13557    1.000
    Mo24     Mo       0.16336    0.58396    0.06658    1.000
    S25      S        0.08003    0.66738    0.99769    1.000
    S26      S        0.08008    0.66726    0.13561    1.000
    Mo27     Mo       0.41328    0.58390    0.06634    1.000
    S28      S        0.32997    0.66740    0.99756    1.000
    S29      S        0.33008    0.66714    0.13551    1.000
    Mo30     Mo       0.66339    0.58389    0.06652    1.000
    S31      S        0.58019    0.66738    0.99755    1.000
    S32      S        0.57992    0.66737    0.13538    1.000
    Mo33     Mo       0.91342    0.58390    0.06666    1.000
    S34      S        0.83021    0.66734    0.99771    1.000
    S35      S        0.82990    0.66713    0.13566    1.000
    Mo36     Mo       0.16341    0.83397    0.06669    1.000
    S37      S        0.08016    0.91734    0.99772    1.000
    S38      S        0.08026    0.91750    0.13563    1.000
    Mo39     Mo       0.41341    0.83399    0.06662    1.000
    S40      S        0.33001    0.91729    0.99772    1.000
    S41      S        0.33010    0.91738    0.13562    1.000
    Mo42     Mo       0.66346    0.83409    0.06652    1.000
    S43      S        0.58004    0.91738    0.99763    1.000
    S44      S        0.58012    0.91738    0.13556    1.000
    Mo45     Mo       0.91348    0.83401    0.06669    1.000
    S46      S        0.83020    0.91729    0.99767    1.000
    S47      S        0.83008    0.91733    0.13559    1.000
    H48      H        0.39551    0.48287    0.28121    1.000
    N49      N        0.57051    0.52880    0.27880    1.000
    H50      H        0.59659    0.61455    0.28563    1.000
    H51      H        0.63249    0.50609    0.27077    1.000
    C52      C        0.45393    0.44600    0.27378    1.000
    O53      O        0.41648    0.34159    0.26225    1.000
