# CIF file generated by openbabel 3.1.0, see https://openbabel.org
data_I
_chemical_name_common ''
_cell_length_a 13.105
_cell_length_b 13.105
_cell_length_c 23.0122
_cell_angle_alpha 90
_cell_angle_beta 90
_cell_angle_gamma 120
loop_
    _atom_site_label
    _atom_site_type_symbol
    _atom_site_fract_x
    _atom_site_fract_y
    _atom_site_fract_z
    _atom_site_occupancy
    Mo0      Mo       0.16862    0.08484    0.06656    1.000
    S1       S        0.08532    0.16811    0.99752    1.000
    S2       S        0.08529    0.16829    0.13545    1.000
    Mo3      Mo       0.41870    0.08480    0.06657    1.000
    S4       S        0.33520    0.16793    0.99761    1.000
    S5       S        0.33537    0.16831    0.13554    1.000
    Mo6      Mo       0.66865    0.08475    0.06641    1.000
    S7       S        0.58518    0.16798    0.99747    1.000
    S8       S        0.58552    0.16829    0.13537    1.000
    Mo9      Mo       0.91866    0.08482    0.06646    1.000
    S10      S        0.83541    0.16821    0.99750    1.000
    S11      S        0.83530    0.16816    0.13540    1.000
    Mo12     Mo       0.16864    0.33485    0.06639    1.000
    S13      S        0.08543    0.41832    0.99751    1.000
    S14      S        0.08549    0.41826    0.13543    1.000
    Mo15     Mo       0.41857    0.33484    0.06641    1.000
    S16      S        0.33527    0.41819    0.99745    1.000
    S17      S        0.33508    0.41810    0.13532    1.000
    Mo18     Mo       0.66876    0.33482    0.06627    1.000
    S19      S        0.58520    0.41807    0.99734    1.000
    S20      S        0.58560    0.41831    0.13517    1.000
    Mo21     Mo       0.91877    0.33491    0.06645    1.000
    S22      S        0.83552    0.41822    0.99741    1.000
    S23      S        0.83531    0.41822    0.13532    1.000
    Mo24     Mo       0.16894    0.58499    0.06651    1.000
    S25      S        0.08555    0.66832    0.99755    1.000
    S26      S        0.08533    0.66810    0.13544    1.000
    Mo27     Mo       0.41866    0.58494    0.06650    1.000
    S28      S        0.33537    0.66825    0.99752    1.000
    S29      S        0.33548    0.66812    0.13563    1.000
    Mo30     Mo       0.66875    0.58502    0.06613    1.000
    S31      S        0.58511    0.66817    0.99723    1.000
    S32      S        0.58583    0.66864    0.13496    1.000
    Mo33     Mo       0.91874    0.58489    0.06639    1.000
    S34      S        0.83557    0.66836    0.99737    1.000
    S35      S        0.83517    0.66816    0.13531    1.000
    Mo36     Mo       0.16870    0.83488    0.06657    1.000
    S37      S        0.08550    0.91828    0.99756    1.000
    S38      S        0.08523    0.91817    0.13548    1.000
    Mo39     Mo       0.41867    0.83468    0.06655    1.000
    S40      S        0.33533    0.91814    0.99765    1.000
    S41      S        0.33541    0.91809    0.13554    1.000
    Mo42     Mo       0.66873    0.83491    0.06622    1.000
    S43      S        0.58517    0.91815    0.99742    1.000
    S44      S        0.58545    0.91803    0.13540    1.000
    Mo45     Mo       0.91872    0.83492    0.06642    1.000
    S46      S        0.83551    0.91830    0.99739    1.000
    S47      S        0.83517    0.91803    0.13535    1.000
    H48      H        0.60470    0.59498    0.27508    1.000
    N49      N        0.46053    0.42799    0.28178    1.000
    H50      H        0.51272    0.39210    0.28604    1.000
    H51      H        0.37232    0.37390    0.27891    1.000
    C52      C        0.50743    0.54628    0.27326    1.000
    O53      O        0.44928    0.59481    0.26439    1.000
