# CIF file generated by openbabel 3.1.0, see https://openbabel.org
data_I
_chemical_name_common ''
_cell_length_a 13.105
_cell_length_b 13.105
_cell_length_c 23.0122
_cell_angle_alpha 90
_cell_angle_beta 90
_cell_angle_gamma 120
loop_
    _atom_site_label
    _atom_site_type_symbol
    _atom_site_fract_x
    _atom_site_fract_y
    _atom_site_fract_z
    _atom_site_occupancy
    Mo0      Mo       0.16230    0.08017    0.06648    1.000
    S1       S        0.07879    0.16319    0.99737    1.000
    S2       S        0.07890    0.16357    0.13531    1.000
    Mo3      Mo       0.41226    0.08019    0.06661    1.000
    S4       S        0.32902    0.16346    0.99758    1.000
    S5       S        0.32893    0.16362    0.13553    1.000
    Mo6      Mo       0.66219    0.08014    0.06653    1.000
    S7       S        0.57884    0.16348    0.99760    1.000
    S8       S        0.57898    0.16364    0.13553    1.000
    Mo9      Mo       0.91218    0.08009    0.06639    1.000
    S10      S        0.82874    0.16344    0.99751    1.000
    S11      S        0.82894    0.16346    0.13541    1.000
    Mo12     Mo       0.16209    0.33003    0.06616    1.000
    S13      S        0.07869    0.41355    0.99740    1.000
    S14      S        0.07888    0.41332    0.13534    1.000
    Mo15     Mo       0.41235    0.33020    0.06653    1.000
    S16      S        0.32906    0.41353    0.99739    1.000
    S17      S        0.32820    0.41289    0.13515    1.000
    Mo18     Mo       0.66212    0.33024    0.06650    1.000
    S19      S        0.57885    0.41345    0.99749    1.000
    S20      S        0.57887    0.41344    0.13559    1.000
    Mo21     Mo       0.91211    0.33012    0.06645    1.000
    S22      S        0.82883    0.41357    0.99756    1.000
    S23      S        0.82880    0.41343    0.13548    1.000
    Mo24     Mo       0.16209    0.58010    0.06645    1.000
    S25      S        0.07884    0.66358    0.99758    1.000
    S26      S        0.07887    0.66342    0.13553    1.000
    Mo27     Mo       0.41219    0.58000    0.06652    1.000
    S28      S        0.32890    0.66345    0.99758    1.000
    S29      S        0.32860    0.66321    0.13546    1.000
    Mo30     Mo       0.66215    0.57994    0.06652    1.000
    S31      S        0.57877    0.66325    0.99745    1.000
    S32      S        0.57923    0.66368    0.13522    1.000
    Mo33     Mo       0.91220    0.58017    0.06658    1.000
    S34      S        0.82890    0.66339    0.99757    1.000
    S35      S        0.82875    0.66338    0.13556    1.000
    Mo36     Mo       0.16227    0.83014    0.06660    1.000
    S37      S        0.07898    0.91340    0.99762    1.000
    S38      S        0.07893    0.91356    0.13548    1.000
    Mo39     Mo       0.41218    0.83009    0.06658    1.000
    S40      S        0.32893    0.91350    0.99765    1.000
    S41      S        0.32894    0.91350    0.13559    1.000
    Mo42     Mo       0.66221    0.83005    0.06630    1.000
    S43      S        0.57872    0.91343    0.99755    1.000
    S44      S        0.57899    0.91331    0.13550    1.000
    Mo45     Mo       0.91221    0.83004    0.06652    1.000
    S46      S        0.82898    0.91337    0.99745    1.000
    S47      S        0.82881    0.91340    0.13539    1.000
    H48      H        0.32982    0.49280    0.27662    1.000
    N49      N        0.46677    0.66413    0.28136    1.000
    H50      H        0.41044    0.69425    0.28859    1.000
    H51      H        0.55371    0.72293    0.27694    1.000
    C52      C        0.42653    0.54706    0.27246    1.000
    O53      O        0.48949    0.50493    0.26079    1.000
