# CIF file generated by openbabel 3.1.0, see https://openbabel.org
data_I
_chemical_name_common ''
_cell_length_a 13.105
_cell_length_b 13.105
_cell_length_c 23.0122
_cell_angle_alpha 90
_cell_angle_beta 90
_cell_angle_gamma 120
loop_
    _atom_site_label
    _atom_site_type_symbol
    _atom_site_fract_x
    _atom_site_fract_y
    _atom_site_fract_z
    _atom_site_occupancy
    Mo0      Mo       0.16126    0.07568    0.06656    1.000
    S1       S        0.07793    0.15901    0.99758    1.000
    S2       S        0.07785    0.15896    0.13552    1.000
    Mo3      Mo       0.41129    0.07561    0.06661    1.000
    S4       S        0.32793    0.15893    0.99762    1.000
    S5       S        0.32796    0.15899    0.13553    1.000
    Mo6      Mo       0.66120    0.07556    0.06638    1.000
    S7       S        0.57777    0.15893    0.99752    1.000
    S8       S        0.57804    0.15895    0.13548    1.000
    Mo9      Mo       0.91125    0.07567    0.06654    1.000
    S10      S        0.82800    0.15899    0.99752    1.000
    S11      S        0.82776    0.15885    0.13546    1.000
    Mo12     Mo       0.16119    0.32558    0.06656    1.000
    S13      S        0.07789    0.40892    0.99759    1.000
    S14      S        0.07794    0.40903    0.13554    1.000
    Mo15     Mo       0.41131    0.32563    0.06652    1.000
    S16      S        0.32789    0.40899    0.99764    1.000
    S17      S        0.32790    0.40887    0.13553    1.000
    Mo18     Mo       0.66124    0.32562    0.06648    1.000
    S19      S        0.57784    0.40885    0.99746    1.000
    S20      S        0.57804    0.40914    0.13544    1.000
    Mo21     Mo       0.91120    0.32560    0.06653    1.000
    S22      S        0.82795    0.40897    0.99754    1.000
    S23      S        0.82789    0.40900    0.13543    1.000
    Mo24     Mo       0.16124    0.57566    0.06647    1.000
    S25      S        0.07803    0.65913    0.99759    1.000
    S26      S        0.07790    0.65898    0.13551    1.000
    Mo27     Mo       0.41119    0.57570    0.06662    1.000
    S28      S        0.32796    0.65908    0.99763    1.000
    S29      S        0.32764    0.65903    0.13547    1.000
    Mo30     Mo       0.66132    0.57566    0.06631    1.000
    S31      S        0.57776    0.65907    0.99751    1.000
    S32      S        0.57832    0.65915    0.13525    1.000
    Mo33     Mo       0.91127    0.57569    0.06648    1.000
    S34      S        0.82809    0.65914    0.99746    1.000
    S35      S        0.82785    0.65901    0.13539    1.000
    Mo36     Mo       0.16138    0.82574    0.06661    1.000
    S37      S        0.07806    0.90906    0.99758    1.000
    S38      S        0.07790    0.90902    0.13550    1.000
    Mo39     Mo       0.41150    0.82582    0.06667    1.000
    S40      S        0.32803    0.90898    0.99769    1.000
    S41      S        0.32812    0.90902    0.13567    1.000
    Mo42     Mo       0.66118    0.82596    0.06645    1.000
    S43      S        0.57774    0.90900    0.99741    1.000
    S44      S        0.57821    0.90950    0.13545    1.000
    Mo45     Mo       0.91127    0.82574    0.06648    1.000
    S46      S        0.82791    0.90910    0.99754    1.000
    S47      S        0.82776    0.90899    0.13550    1.000
    H48      H        0.58142    0.70000    0.29121    1.000
    N49      N        0.40553    0.58211    0.27675    1.000
    H50      H        0.41694    0.51301    0.28569    1.000
    H51      H        0.32603    0.56614    0.26212    1.000
    C52      C        0.49861    0.69477    0.27675    1.000
    O53      O        0.49263    0.78213    0.26257    1.000
