# CIF file generated by openbabel 3.1.0, see https://openbabel.org
data_I
_chemical_name_common ''
_cell_length_a 13.105
_cell_length_b 13.105
_cell_length_c 23.0122
_cell_angle_alpha 90
_cell_angle_beta 90
_cell_angle_gamma 120
loop_
    _atom_site_label
    _atom_site_type_symbol
    _atom_site_fract_x
    _atom_site_fract_y
    _atom_site_fract_z
    _atom_site_occupancy
    Mo0      Mo       0.17068    0.08983    0.06638    1.000
    S1       S        0.08713    0.17308    0.99747    1.000
    S2       S        0.08719    0.17302    0.13539    1.000
    Mo3      Mo       0.42043    0.08982    0.06655    1.000
    S4       S        0.33732    0.17315    0.99749    1.000
    S5       S        0.33705    0.17300    0.13547    1.000
    Mo6      Mo       0.67038    0.08986    0.06649    1.000
    S7       S        0.58705    0.17311    0.99754    1.000
    S8       S        0.58710    0.17322    0.13555    1.000
    Mo9      Mo       0.92046    0.08973    0.06643    1.000
    S10      S        0.83705    0.17304    0.99752    1.000
    S11      S        0.83708    0.17299    0.13543    1.000
    Mo12     Mo       0.17033    0.33963    0.06641    1.000
    S13      S        0.08706    0.42304    0.99753    1.000
    S14      S        0.08706    0.42290    0.13546    1.000
    Mo15     Mo       0.42060    0.33965    0.06655    1.000
    S16      S        0.33717    0.42302    0.99756    1.000
    S17      S        0.33683    0.42285    0.13531    1.000
    Mo18     Mo       0.67050    0.33978    0.06647    1.000
    S19      S        0.58714    0.42302    0.99740    1.000
    S20      S        0.58762    0.42342    0.13523    1.000
    Mo21     Mo       0.92041    0.33965    0.06650    1.000
    S22      S        0.83717    0.42298    0.99752    1.000
    S23      S        0.83709    0.42297    0.13549    1.000
    Mo24     Mo       0.17041    0.58964    0.06656    1.000
    S25      S        0.08719    0.67299    0.99758    1.000
    S26      S        0.08710    0.67300    0.13550    1.000
    Mo27     Mo       0.42048    0.58974    0.06648    1.000
    S28      S        0.33707    0.67305    0.99762    1.000
    S29      S        0.33718    0.67302    0.13549    1.000
    Mo30     Mo       0.67053    0.58978    0.06623    1.000
    S31      S        0.58706    0.67324    0.99743    1.000
    S32      S        0.58740    0.67333    0.13530    1.000
    Mo33     Mo       0.92050    0.58961    0.06650    1.000
    S34      S        0.83741    0.67311    0.99746    1.000
    S35      S        0.83706    0.67303    0.13535    1.000
    Mo36     Mo       0.17046    0.83968    0.06653    1.000
    S37      S        0.08730    0.92308    0.99749    1.000
    S38      S        0.08726    0.92322    0.13541    1.000
    Mo39     Mo       0.42047    0.83979    0.06654    1.000
    S40      S        0.33709    0.92303    0.99759    1.000
    S41      S        0.33709    0.92311    0.13551    1.000
    Mo42     Mo       0.67056    0.83998    0.06638    1.000
    S43      S        0.58706    0.92324    0.99752    1.000
    S44      S        0.58721    0.92323    0.13544    1.000
    Mo45     Mo       0.92058    0.83983    0.06641    1.000
    S46      S        0.83721    0.92314    0.99745    1.000
    S47      S        0.83720    0.92312    0.13537    1.000
    H48      H        0.34228    0.36773    0.28769    1.000
    N49      N        0.50934    0.51002    0.27752    1.000
    H50      H        0.48007    0.56699    0.28494    1.000
    H51      H        0.59482    0.54273    0.26637    1.000
    C52      C        0.43333    0.39108    0.27648    1.000
    O53      O        0.46130    0.31687    0.26459    1.000
