# CIF file generated by openbabel 3.1.0, see https://openbabel.org
data_I
_chemical_name_common ''
_cell_length_a 13.105
_cell_length_b 13.105
_cell_length_c 23.0122
_cell_angle_alpha 90
_cell_angle_beta 90
_cell_angle_gamma 120
loop_
    _atom_site_label
    _atom_site_type_symbol
    _atom_site_fract_x
    _atom_site_fract_y
    _atom_site_fract_z
    _atom_site_occupancy
    Mo0      Mo       0.16757    0.08315    0.06632    1.000
    S1       S        0.08415    0.16647    0.99737    1.000
    S2       S        0.08421    0.16646    0.13531    1.000
    Mo3      Mo       0.41765    0.08308    0.06635    1.000
    S4       S        0.33417    0.16623    0.99733    1.000
    S5       S        0.33428    0.16646    0.13525    1.000
    Mo6      Mo       0.66750    0.08285    0.06633    1.000
    S7       S        0.58425    0.16625    0.99732    1.000
    S8       S        0.58433    0.16639    0.13526    1.000
    Mo9      Mo       0.91753    0.08304    0.06636    1.000
    S10      S        0.83422    0.16635    0.99741    1.000
    S11      S        0.83413    0.16628    0.13531    1.000
    Mo12     Mo       0.16767    0.33311    0.06631    1.000
    S13      S        0.08440    0.41648    0.99739    1.000
    S14      S        0.08446    0.41659    0.13531    1.000
    Mo15     Mo       0.41762    0.33295    0.06618    1.000
    S16      S        0.33428    0.41639    0.99729    1.000
    S17      S        0.33451    0.41631    0.13518    1.000
    Mo18     Mo       0.66768    0.33301    0.06621    1.000
    S19      S        0.58417    0.41608    0.99713    1.000
    S20      S        0.58442    0.41658    0.13508    1.000
    Mo21     Mo       0.91765    0.33306    0.06634    1.000
    S22      S        0.83440    0.41634    0.99730    1.000
    S23      S        0.83431    0.41652    0.13517    1.000
    Mo24     Mo       0.16784    0.58323    0.06626    1.000
    S25      S        0.08451    0.66658    0.99731    1.000
    S26      S        0.08435    0.66649    0.13521    1.000
    Mo27     Mo       0.41783    0.58313    0.06624    1.000
    S28      S        0.33453    0.66662    0.99735    1.000
    S29      S        0.33450    0.66657    0.13526    1.000
    Mo30     Mo       0.66769    0.58306    0.06584    1.000
    S31      S        0.58427    0.66663    0.99706    1.000
    S32      S        0.58492    0.66624    0.13472    1.000
    Mo33     Mo       0.91769    0.58311    0.06618    1.000
    S34      S        0.83459    0.66660    0.99712    1.000
    S35      S        0.83407    0.66630    0.13506    1.000
    Mo36     Mo       0.16776    0.83322    0.06632    1.000
    S37      S        0.08440    0.91656    0.99736    1.000
    S38      S        0.08422    0.91645    0.13523    1.000
    Mo39     Mo       0.41790    0.83326    0.06641    1.000
    S40      S        0.33445    0.91649    0.99741    1.000
    S41      S        0.33442    0.91648    0.13536    1.000
    Mo42     Mo       0.66761    0.83316    0.06628    1.000
    S43      S        0.58423    0.91639    0.99733    1.000
    S44      S        0.58444    0.91640    0.13546    1.000
    Mo45     Mo       0.91762    0.83314    0.06624    1.000
    S46      S        0.83433    0.91656    0.99733    1.000
    S47      S        0.83414    0.91627    0.13531    1.000
    H48      H        0.53962    0.59041    0.28253    1.000
    N49      N        0.37145    0.56556    0.28111    1.000
    H50      H        0.33569    0.47770    0.28638    1.000
    H51      H        0.31725    0.59855    0.27414    1.000
    C52      C        0.49059    0.63796    0.27655    1.000
    O53      O        0.53938    0.74434    0.26677    1.000
