# CIF file generated by openbabel 3.1.0, see https://openbabel.org
data_I
_chemical_name_common ''
_cell_length_a 13.105
_cell_length_b 13.105
_cell_length_c 23.0122
_cell_angle_alpha 90
_cell_angle_beta 90
_cell_angle_gamma 120
loop_
    _atom_site_label
    _atom_site_type_symbol
    _atom_site_fract_x
    _atom_site_fract_y
    _atom_site_fract_z
    _atom_site_occupancy
    H0       H        0.41813    0.40778    0.47588    1.000
    N1       N        0.51260    0.58928    0.47596    1.000
    H2       H        0.43791    0.59367    0.47555    1.000
    H3       H        0.59115    0.66495    0.47553    1.000
    C4       C        0.50915    0.48314    0.47591    1.000
    O5       O        0.59615    0.47115    0.47590    1.000
