# CIF file generated by openbabel 3.1.0, see https://openbabel.org
data_I
_chemical_name_common ''
_cell_length_a 13.105
_cell_length_b 13.105
_cell_length_c 23.0122
_cell_angle_alpha 90
_cell_angle_beta 90
_cell_angle_gamma 120
loop_
    _atom_site_label
    _atom_site_type_symbol
    _atom_site_fract_x
    _atom_site_fract_y
    _atom_site_fract_z
    _atom_site_occupancy
    Mo0      Mo       0.16817    0.08297    0.06625    1.000
    S1       S        0.08452    0.16591    0.99716    1.000
    S2       S        0.08492    0.16658    0.13512    1.000
    Mo3      Mo       0.41815    0.08306    0.06639    1.000
    S4       S        0.33479    0.16615    0.99727    1.000
    S5       S        0.33484    0.16662    0.13525    1.000
    Mo6      Mo       0.66808    0.08300    0.06639    1.000
    S7       S        0.58479    0.16633    0.99743    1.000
    S8       S        0.58480    0.16647    0.13535    1.000
    Mo9      Mo       0.91801    0.08288    0.06625    1.000
    S10      S        0.83457    0.16625    0.99737    1.000
    S11      S        0.83480    0.16632    0.13524    1.000
    Mo12     Mo       0.16793    0.33290    0.06582    1.000
    S13      S        0.08454    0.41664    0.99722    1.000
    S14      S        0.08483    0.41614    0.13517    1.000
    Mo15     Mo       0.41816    0.33298    0.06607    1.000
    S16      S        0.33481    0.41638    0.99694    1.000
    S17      S        0.33414    0.41547    0.13447    1.000
    Mo18     Mo       0.66799    0.33311    0.06635    1.000
    S19      S        0.58495    0.41649    0.99729    1.000
    S20      S        0.58441    0.41620    0.13538    1.000
    Mo21     Mo       0.91798    0.33300    0.06628    1.000
    S22      S        0.83471    0.41650    0.99742    1.000
    S23      S        0.83465    0.41626    0.13534    1.000
    Mo24     Mo       0.16812    0.58304    0.06637    1.000
    S25      S        0.08479    0.66648    0.99752    1.000
    S26      S        0.08488    0.66637    0.13540    1.000
    Mo27     Mo       0.41818    0.58285    0.06622    1.000
    S28      S        0.33481    0.66647    0.99744    1.000
    S29      S        0.33490    0.66621    0.13535    1.000
    Mo30     Mo       0.66798    0.58289    0.06646    1.000
    S31      S        0.58487    0.66621    0.99732    1.000
    S32      S        0.58472    0.66631    0.13533    1.000
    Mo33     Mo       0.91811    0.58303    0.06648    1.000
    S34      S        0.83483    0.66629    0.99752    1.000
    S35      S        0.83465    0.66628    0.13544    1.000
    Mo36     Mo       0.16824    0.83308    0.06645    1.000
    S37      S        0.08479    0.91613    0.99742    1.000
    S38      S        0.08488    0.91647    0.13533    1.000
    Mo39     Mo       0.41821    0.83307    0.06643    1.000
    S40      S        0.33488    0.91637    0.99747    1.000
    S41      S        0.33492    0.91646    0.13539    1.000
    Mo42     Mo       0.66805    0.83278    0.06628    1.000
    S43      S        0.58477    0.91634    0.99744    1.000
    S44      S        0.58490    0.91623    0.13534    1.000
    Mo45     Mo       0.91813    0.83294    0.06641    1.000
    S46      S        0.83473    0.91610    0.99737    1.000
    S47      S        0.83468    0.91625    0.13528    1.000
    H48      H        0.39849    0.61190    0.27499    1.000
    N49      N        0.26990    0.43758    0.28358    1.000
    H50      H        0.20723    0.45962    0.29041    1.000
    H51      H        0.24553    0.35121    0.28137    1.000
    C52      C        0.38427    0.52152    0.27298    1.000
    O53      O        0.46382    0.50063    0.26188    1.000
