# CIF file generated by openbabel 3.1.0, see https://openbabel.org
data_I
_chemical_name_common ''
_cell_length_a 13.105
_cell_length_b 13.105
_cell_length_c 23.0122
_cell_angle_alpha 90
_cell_angle_beta 90
_cell_angle_gamma 120
loop_
    _atom_site_label
    _atom_site_type_symbol
    _atom_site_fract_x
    _atom_site_fract_y
    _atom_site_fract_z
    _atom_site_occupancy
    Mo0      Mo       0.16932    0.08171    0.06642    1.000
    S1       S        0.08597    0.16488    0.99742    1.000
    S2       S        0.08623    0.16515    0.13553    1.000
    Mo3      Mo       0.41943    0.08168    0.06635    1.000
    S4       S        0.33586    0.16469    0.99730    1.000
    S5       S        0.33609    0.16513    0.13529    1.000
    Mo6      Mo       0.66951    0.08170    0.06651    1.000
    S7       S        0.58626    0.16500    0.99747    1.000
    S8       S        0.58606    0.16502    0.13540    1.000
    Mo9      Mo       0.91960    0.08169    0.06649    1.000
    S10      S        0.83613    0.16496    0.99756    1.000
    S11      S        0.83622    0.16500    0.13549    1.000
    Mo12     Mo       0.16932    0.33148    0.06639    1.000
    S13      S        0.08595    0.41494    0.99748    1.000
    S14      S        0.08610    0.41488    0.13543    1.000
    Mo15     Mo       0.41939    0.33151    0.06607    1.000
    S16      S        0.33587    0.41484    0.99713    1.000
    S17      S        0.33630    0.41462    0.13480    1.000
    Mo18     Mo       0.66948    0.33164    0.06642    1.000
    S19      S        0.58634    0.41505    0.99734    1.000
    S20      S        0.58581    0.41482    0.13531    1.000
    Mo21     Mo       0.91944    0.33164    0.06649    1.000
    S22      S        0.83617    0.41496    0.99750    1.000
    S23      S        0.83607    0.41491    0.13544    1.000
    Mo24     Mo       0.16926    0.58152    0.06642    1.000
    S25      S        0.08600    0.66501    0.99753    1.000
    S26      S        0.08612    0.66499    0.13545    1.000
    Mo27     Mo       0.41935    0.58145    0.06621    1.000
    S28      S        0.33591    0.66497    0.99744    1.000
    S29      S        0.33608    0.66489    0.13530    1.000
    Mo30     Mo       0.66942    0.58157    0.06641    1.000
    S31      S        0.58624    0.66504    0.99745    1.000
    S32      S        0.58585    0.66474    0.13538    1.000
    Mo33     Mo       0.91938    0.58159    0.06650    1.000
    S34      S        0.83616    0.66497    0.99752    1.000
    S35      S        0.83602    0.66491    0.13544    1.000
    Mo36     Mo       0.16948    0.83170    0.06646    1.000
    S37      S        0.08601    0.91488    0.99752    1.000
    S38      S        0.08613    0.91507    0.13543    1.000
    Mo39     Mo       0.41946    0.83169    0.06638    1.000
    S40      S        0.33612    0.91496    0.99743    1.000
    S41      S        0.33622    0.91508    0.13536    1.000
    Mo42     Mo       0.66949    0.83164    0.06646    1.000
    S43      S        0.58625    0.91507    0.99752    1.000
    S44      S        0.58609    0.91494    0.13541    1.000
    Mo45     Mo       0.91942    0.83159    0.06649    1.000
    S46      S        0.83613    0.91496    0.99753    1.000
    S47      S        0.83617    0.91499    0.13544    1.000
    H48      H        0.21198    0.50538    0.28419    1.000
    N49      N        0.37876    0.52727    0.27886    1.000
    H50      H        0.41620    0.61527    0.28424    1.000
    H51      H        0.43139    0.49301    0.27044    1.000
    C52      C        0.25906    0.45649    0.27633    1.000
    O53      O        0.20773    0.35011    0.26633    1.000
