# CIF file generated by openbabel 3.1.0, see https://openbabel.org
data_I
_chemical_name_common ''
_cell_length_a 19.6668
_cell_length_b 19.6668
_cell_length_c 23.0123
_cell_angle_alpha 90
_cell_angle_beta 90
_cell_angle_gamma 120
loop_
    _atom_site_label
    _atom_site_type_symbol
    _atom_site_fract_x
    _atom_site_fract_y
    _atom_site_fract_z
    _atom_site_occupancy
    Mo0      Mo       0.11292    0.05290    0.06871    1.000
    S1       S        0.05728    0.10837    0.99979    1.000
    S2       S        0.05752    0.10857    0.13767    1.000
    Mo3      Mo       0.27958    0.05290    0.06857    1.000
    S4       S        0.22385    0.10825    0.99959    1.000
    S5       S        0.22426    0.10875    0.13748    1.000
    Mo6      Mo       0.44624    0.05291    0.06853    1.000
    S7       S        0.39051    0.10814    0.99943    1.000
    S8       S        0.39083    0.10877    0.13733    1.000
    Mo9      Mo       0.61294    0.05292    0.06869    1.000
    S10      S        0.55741    0.10835    0.99962    1.000
    S11      S        0.55733    0.10859    0.13749    1.000
    Mo12     Mo       0.77961    0.05290    0.06880    1.000
    S13      S        0.72413    0.10848    0.99982    1.000
    S14      S        0.72400    0.10847    0.13769    1.000
    Mo15     Mo       0.94627    0.05286    0.06880    1.000
    S16      S        0.89074    0.10847    0.99990    1.000
    S17      S        0.89074    0.10845    0.13775    1.000
    Mo18     Mo       0.11303    0.21959    0.06860    1.000
    S19      S        0.05736    0.27513    0.99980    1.000
    S20      S        0.05764    0.27520    0.13768    1.000
    Mo21     Mo       0.27969    0.21962    0.06828    1.000
    S22      S        0.22388    0.27496    0.99942    1.000
    S23      S        0.22443    0.27539    0.13738    1.000
    Mo24     Mo       0.44625    0.21953    0.06803    1.000
    S25      S        0.39045    0.27469    0.99892    1.000
    S26      S        0.39108    0.27545    0.13687    1.000
    Mo27     Mo       0.61297    0.21957    0.06843    1.000
    S28      S        0.55748    0.27490    0.99919    1.000
    S29      S        0.55727    0.27530    0.13711    1.000
    Mo30     Mo       0.77966    0.21959    0.06874    1.000
    S31      S        0.72424    0.27510    0.99965    1.000
    S32      S        0.72394    0.27517    0.13752    1.000
    Mo33     Mo       0.94635    0.21959    0.06882    1.000
    S34      S        0.89083    0.27515    0.99988    1.000
    S35      S        0.89074    0.27513    0.13776    1.000
    Mo36     Mo       0.11308    0.38628    0.06870    1.000
    S37      S        0.05745    0.44186    0.99987    1.000
    S38      S        0.05755    0.44176    0.13776    1.000
    Mo39     Mo       0.27983    0.38627    0.06815    1.000
    S40      S        0.22394    0.44184    0.99955    1.000
    S41      S        0.22451    0.44176    0.13749    1.000
    Mo42     Mo       0.44634    0.38614    0.06749    1.000
    S43      S        0.39052    0.44160    0.99859    1.000
    S44      S        0.39142    0.44196    0.13629    1.000
    Mo45     Mo       0.61299    0.38620    0.06791    1.000
    S46      S        0.55764    0.44174    0.99869    1.000
    S47      S        0.55724    0.44160    0.13660    1.000
    Mo48     Mo       0.77966    0.38624    0.06856    1.000
    S49      S        0.72444    0.44188    0.99937    1.000
    S50      S        0.72373    0.44169    0.13729    1.000
    Mo51     Mo       0.94637    0.38625    0.06882    1.000
    S52      S        0.89095    0.44184    0.99981    1.000
    S53      S        0.89061    0.44173    0.13767    1.000
    Mo54     Mo       0.11299    0.55291    0.06887    1.000
    S55      S        0.05745    0.60848    0.99993    1.000
    S56      S        0.05739    0.60844    0.13780    1.000
    Mo57     Mo       0.27968    0.55290    0.06854    1.000
    S58      S        0.22393    0.60848    0.99982    1.000
    S59      S        0.22428    0.60841    0.13770    1.000
    Mo60     Mo       0.44628    0.55279    0.06749    1.000
    S61      S        0.39042    0.60862    0.99920    1.000
    S62      S        0.39112    0.60819    0.13721    1.000
    Mo63     Mo       0.61294    0.55278    0.06781    1.000
    S64      S        0.55759    0.60857    0.99875    1.000
    S65      S        0.55709    0.60798    0.13650    1.000
    Mo66     Mo       0.77961    0.55287    0.06844    1.000
    S67      S        0.72443    0.60858    0.99929    1.000
    S68      S        0.72355    0.60810    0.13728    1.000
    Mo69     Mo       0.94631    0.55290    0.06880    1.000
    S70      S        0.89096    0.60853    0.99976    1.000
    S71      S        0.89048    0.60834    0.13763    1.000
    Mo72     Mo       0.11294    0.71958    0.06887    1.000
    S73      S        0.05741    0.77510    0.99988    1.000
    S74      S        0.05734    0.77514    0.13776    1.000
    Mo75     Mo       0.27960    0.71956    0.06875    1.000
    S76      S        0.22396    0.77508    0.99986    1.000
    S77      S        0.22413    0.77518    0.13773    1.000
    Mo78     Mo       0.44625    0.71951    0.06837    1.000
    S79      S        0.39057    0.77519    0.99966    1.000
    S80      S        0.39083    0.77502    0.13752    1.000
    Mo81     Mo       0.61286    0.71940    0.06807    1.000
    S82      S        0.55738    0.77532    0.99944    1.000
    S83      S        0.55731    0.77471    0.13736    1.000
    Mo84     Mo       0.77954    0.71944    0.06848    1.000
    S85      S        0.72428    0.77527    0.99949    1.000
    S86      S        0.72365    0.77469    0.13740    1.000
    Mo87     Mo       0.94627    0.71954    0.06876    1.000
    S88      S        0.89085    0.77515    0.99974    1.000
    S89      S        0.89047    0.77493    0.13761    1.000
    Mo90     Mo       0.11292    0.88623    0.06880    1.000
    S91      S        0.05734    0.94173    0.99984    1.000
    S92      S        0.05737    0.94183    0.13770    1.000
    Mo93     Mo       0.27959    0.88625    0.06874    1.000
    S94      S        0.22392    0.94166    0.99979    1.000
    S95      S        0.22412    0.94194    0.13766    1.000
    Mo96     Mo       0.44626    0.88625    0.06866    1.000
    S97      S        0.39061    0.94170    0.99971    1.000
    S98      S        0.39078    0.94192    0.13759    1.000
    Mo99     Mo       0.61292    0.88621    0.06863    1.000
    S100     S        0.55740    0.94184    0.99975    1.000
    S101     S        0.55736    0.94176    0.13761    1.000
    Mo102    Mo       0.77956    0.88616    0.06867    1.000
    S103     S        0.72411    0.94187    0.99978    1.000
    S104     S        0.72395    0.94164    0.13764    1.000
    Mo105    Mo       0.94623    0.88618    0.06876    1.000
    S106     S        0.89074    0.94179    0.99982    1.000
    S107     S        0.89060    0.94165    0.13770    1.000
    H108     H        0.61487    0.50587    0.28101    1.000
    C109     C        0.56963    0.52159    0.28201    1.000
    C110     C        0.48604    0.46870    0.28057    1.000
    C111     C        0.58177    0.59672    0.28517    1.000
    H112     H        0.63566    0.65233    0.28669    1.000
    N113     N        0.50949    0.59386    0.28585    1.000
    H114     H        0.50203    0.64099    0.28732    1.000
    C115     C        0.44949    0.51590    0.28298    1.000
    C116     C        0.43798    0.38638    0.27775    1.000
    H117     H        0.46393    0.34905    0.27579    1.000
    C118     C        0.36778    0.48327    0.28286    1.000
    H119     H        0.34105    0.51992    0.28455    1.000
    C120     C        0.35664    0.35373    0.27775    1.000
    H121     H        0.31908    0.29051    0.27569    1.000
    C122     C        0.32190    0.40160    0.28036    1.000
    H123     H        0.25848    0.37436    0.28011    1.000
