# CIF file generated by openbabel 3.1.0, see https://openbabel.org
data_I
_chemical_name_common ''
_cell_length_a 19.6668
_cell_length_b 19.6668
_cell_length_c 23.0123
_cell_angle_alpha 90
_cell_angle_beta 90
_cell_angle_gamma 120
loop_
    _atom_site_label
    _atom_site_type_symbol
    _atom_site_fract_x
    _atom_site_fract_y
    _atom_site_fract_z
    _atom_site_occupancy
    Mo0      Mo       0.11165    0.05437    0.06854    1.000
    S1       S        0.05599    0.10984    0.99961    1.000
    S2       S        0.05630    0.11011    0.13748    1.000
    Mo3      Mo       0.27829    0.05435    0.06848    1.000
    S4       S        0.22255    0.10960    0.99941    1.000
    S5       S        0.22296    0.11026    0.13732    1.000
    Mo6      Mo       0.44495    0.05434    0.06854    1.000
    S7       S        0.38926    0.10958    0.99940    1.000
    S8       S        0.38954    0.11026    0.13731    1.000
    Mo9      Mo       0.61163    0.05435    0.06866    1.000
    S10      S        0.55608    0.10978    0.99962    1.000
    S11      S        0.55604    0.11007    0.13748    1.000
    Mo12     Mo       0.77832    0.05437    0.06873    1.000
    S13      S        0.72279    0.10992    0.99977    1.000
    S14      S        0.72272    0.10994    0.13762    1.000
    Mo15     Mo       0.94502    0.05439    0.06865    1.000
    S16      S        0.88941    0.10994    0.99977    1.000
    S17      S        0.88949    0.10994    0.13764    1.000
    Mo18     Mo       0.11171    0.22108    0.06840    1.000
    S19      S        0.05599    0.27664    0.99965    1.000
    S20      S        0.05629    0.27660    0.13753    1.000
    Mo21     Mo       0.27829    0.22102    0.06800    1.000
    S22      S        0.22252    0.27649    0.99919    1.000
    S23      S        0.22309    0.27675    0.13719    1.000
    Mo24     Mo       0.44493    0.22101    0.06799    1.000
    S25      S        0.38912    0.27606    0.99871    1.000
    S26      S        0.38952    0.27685    0.13667    1.000
    Mo27     Mo       0.61159    0.22105    0.06837    1.000
    S28      S        0.55614    0.27642    0.99914    1.000
    S29      S        0.55588    0.27677    0.13712    1.000
    Mo30     Mo       0.77830    0.22105    0.06868    1.000
    S31      S        0.72287    0.27661    0.99963    1.000
    S32      S        0.72253    0.27657    0.13751    1.000
    Mo33     Mo       0.94500    0.22106    0.06870    1.000
    S34      S        0.88943    0.27662    0.99979    1.000
    S35      S        0.88941    0.27658    0.13766    1.000
    Mo36     Mo       0.11170    0.38771    0.06862    1.000
    S37      S        0.05607    0.44333    0.99982    1.000
    S38      S        0.05614    0.44316    0.13767    1.000
    Mo39     Mo       0.27839    0.38767    0.06805    1.000
    S40      S        0.22259    0.44337    0.99950    1.000
    S41      S        0.22306    0.44309    0.13748    1.000
    Mo42     Mo       0.44484    0.38753    0.06721    1.000
    S43      S        0.38915    0.44333    0.99860    1.000
    S44      S        0.38980    0.44297    0.13631    1.000
    Mo45     Mo       0.61146    0.38765    0.06794    1.000
    S46      S        0.55626    0.44327    0.99852    1.000
    S47      S        0.55551    0.44317    0.13617    1.000
    Mo48     Mo       0.77824    0.38768    0.06860    1.000
    S49      S        0.72301    0.44338    0.99946    1.000
    S50      S        0.72218    0.44306    0.13737    1.000
    Mo51     Mo       0.94496    0.38770    0.06875    1.000
    S52      S        0.88949    0.44331    0.99979    1.000
    S53      S        0.88924    0.44315    0.13765    1.000
    Mo54     Mo       0.11162    0.55435    0.06883    1.000
    S55      S        0.05607    0.60994    0.99990    1.000
    S56      S        0.05604    0.60987    0.13779    1.000
    Mo57     Mo       0.27832    0.55430    0.06859    1.000
    S58      S        0.22263    0.60994    0.99985    1.000
    S59      S        0.22286    0.60981    0.13770    1.000
    Mo60     Mo       0.44490    0.55421    0.06792    1.000
    S61      S        0.38915    0.60999    0.99941    1.000
    S62      S        0.38960    0.60958    0.13739    1.000
    Mo63     Mo       0.61153    0.55429    0.06771    1.000
    S64      S        0.55611    0.61017    0.99903    1.000
    S65      S        0.55589    0.60950    0.13701    1.000
    Mo66     Mo       0.77823    0.55432    0.06853    1.000
    S67      S        0.72313    0.61010    0.99935    1.000
    S68      S        0.72212    0.60956    0.13731    1.000
    Mo69     Mo       0.94495    0.55434    0.06881    1.000
    S70      S        0.88955    0.60995    0.99983    1.000
    S71      S        0.88916    0.60979    0.13768    1.000
    Mo72     Mo       0.11161    0.72100    0.06887    1.000
    S73      S        0.05606    0.77651    0.99988    1.000
    S74      S        0.05604    0.77663    0.13774    1.000
    Mo75     Mo       0.27828    0.72099    0.06878    1.000
    S76      S        0.22265    0.77650    0.99987    1.000
    S77      S        0.22279    0.77662    0.13773    1.000
    Mo78     Mo       0.44492    0.72092    0.06853    1.000
    S79      S        0.38929    0.77655    0.99973    1.000
    S80      S        0.38948    0.77647    0.13761    1.000
    Mo81     Mo       0.61159    0.72097    0.06831    1.000
    S82      S        0.55604    0.77668    0.99959    1.000
    S83      S        0.55604    0.77634    0.13746    1.000
    Mo84     Mo       0.77827    0.72099    0.06853    1.000
    S85      S        0.72290    0.77672    0.99958    1.000
    S86      S        0.72255    0.77639    0.13743    1.000
    Mo87     Mo       0.94493    0.72100    0.06878    1.000
    S88      S        0.88952    0.77660    0.99973    1.000
    S89      S        0.88925    0.77653    0.13759    1.000
    Mo90     Mo       0.11163    0.88769    0.06874    1.000
    S91      S        0.05606    0.94315    0.99971    1.000
    S92      S        0.05614    0.94339    0.13759    1.000
    Mo93     Mo       0.27829    0.88767    0.06873    1.000
    S94      S        0.22265    0.94306    0.99975    1.000
    S95      S        0.22284    0.94343    0.13761    1.000
    Mo96     Mo       0.44494    0.88764    0.06867    1.000
    S97      S        0.38934    0.94311    0.99971    1.000
    S98      S        0.38947    0.94334    0.13758    1.000
    Mo99     Mo       0.61163    0.88765    0.06864    1.000
    S100     S        0.55607    0.94323    0.99974    1.000
    S101     S        0.55606    0.94320    0.13759    1.000
    Mo102    Mo       0.77832    0.88770    0.06863    1.000
    S103     S        0.72279    0.94332    0.99973    1.000
    S104     S        0.72273    0.94318    0.13760    1.000
    Mo105    Mo       0.94499    0.88770    0.06867    1.000
    S106     S        0.88945    0.94327    0.99974    1.000
    S107     S        0.88945    0.94327    0.13760    1.000
    H108     H        0.48164    0.28764    0.27860    1.000
    C109     C        0.49690    0.34848    0.27967    1.000
    C110     C        0.44350    0.37857    0.28035    1.000
    C111     C        0.57196    0.41194    0.28104    1.000
    H112     H        0.62786    0.41419    0.28070    1.000
    N113     N        0.56850    0.48099    0.28249    1.000
    H114     H        0.61542    0.53578    0.28301    1.000
    C115     C        0.49025    0.46237    0.28197    1.000
    C116     C        0.36101    0.34366    0.28026    1.000
    H117     H        0.32406    0.28029    0.27898    1.000
    C118     C        0.45696    0.51086    0.28367    1.000
    H119     H        0.49325    0.57428    0.28488    1.000
    C120     C        0.32774    0.39174    0.28216    1.000
    H121     H        0.26440    0.36553    0.28228    1.000
    C122     C        0.37518    0.47446    0.28391    1.000
    H123     H        0.34750    0.51022    0.28528    1.000
