# CIF file generated by openbabel 3.1.0, see https://openbabel.org
data_I
_chemical_name_common ''
_cell_length_a 19.6668
_cell_length_b 19.6668
_cell_length_c 23.0123
_cell_angle_alpha 90
_cell_angle_beta 90
_cell_angle_gamma 120
loop_
    _atom_site_label
    _atom_site_type_symbol
    _atom_site_fract_x
    _atom_site_fract_y
    _atom_site_fract_z
    _atom_site_occupancy
    H0       H        0.65688    0.54305    0.46120    1.000
    C1       C        0.60952    0.55569    0.46114    1.000
    C2       C        0.52668    0.49943    0.46130    1.000
    C3       C        0.61755    0.62924    0.46096    1.000
    H4       H        0.66958    0.68636    0.46066    1.000
    N5       N        0.54334    0.62218    0.46121    1.000
    H6       H        0.53284    0.66734    0.46034    1.000
    C7       C        0.48633    0.54298    0.46129    1.000
    C8       C        0.48208    0.41679    0.46120    1.000
    H9       H        0.51103    0.38220    0.46121    1.000
    C10      C        0.40431    0.50661    0.46121    1.000
    H11      H        0.37479    0.54067    0.46126    1.000
    C12      C        0.40045    0.38033    0.46101    1.000
    H13      H        0.36565    0.31687    0.46082    1.000
    C14      C        0.36190    0.42475    0.46103    1.000
    H15      H        0.29838    0.39466    0.46088    1.000
