# CIF file generated by openbabel 3.1.0, see https://openbabel.org
data_I
_chemical_name_common ''
_cell_length_a 13.105
_cell_length_b 13.105
_cell_length_c 23.0122
_cell_angle_alpha 90
_cell_angle_beta 90
_cell_angle_gamma 120
loop_
    _atom_site_label
    _atom_site_type_symbol
    _atom_site_fract_x
    _atom_site_fract_y
    _atom_site_fract_z
    _atom_site_occupancy
    Mo0      Mo       0.16654    0.08308    0.06923    1.000
    S1       S        0.08327    0.16641    0.00024    1.000
    S2       S        0.08324    0.16648    0.13815    1.000
    Mo3      Mo       0.41649    0.08311    0.06930    1.000
    S4       S        0.33319    0.16634    0.00020    1.000
    S5       S        0.33332    0.16668    0.13820    1.000
    Mo6      Mo       0.66652    0.08304    0.06932    1.000
    S7       S        0.58314    0.16630    0.00031    1.000
    S8       S        0.58322    0.16654    0.13826    1.000
    Mo9      Mo       0.91655    0.08302    0.06918    1.000
    S10      S        0.83313    0.16628    0.00029    1.000
    S11      S        0.83326    0.16622    0.13827    1.000
    Mo12     Mo       0.16670    0.33312    0.06916    1.000
    S13      S        0.08331    0.41642    0.00028    1.000
    S14      S        0.08340    0.41627    0.13827    1.000
    Mo15     Mo       0.41680    0.33315    0.06902    1.000
    S16      S        0.33339    0.41649    0.00011    1.000
    S17      S        0.33354    0.41659    0.13802    1.000
    Mo18     Mo       0.66662    0.33305    0.06917    1.000
    S19      S        0.58346    0.41636    0.00008    1.000
    S20      S        0.58330    0.41646    0.13810    1.000
    Mo21     Mo       0.91665    0.33291    0.06929    1.000
    S22      S        0.83339    0.41620    0.00027    1.000
    S23      S        0.83322    0.41626    0.13826    1.000
    Mo24     Mo       0.16657    0.58300    0.06933    1.000
    S25      S        0.08325    0.66633    0.00034    1.000
    S26      S        0.08305    0.66626    0.13828    1.000
    Mo27     Mo       0.41667    0.58323    0.06898    1.000
    S28      S        0.33310    0.66662    0.00026    1.000
    S29      S        0.33344    0.66638    0.13824    1.000
    Mo30     Mo       0.66671    0.58296    0.06914    1.000
    S31      S        0.58338    0.66645    0.00004    1.000
    S32      S        0.58334    0.66643    0.13781    1.000
    Mo33     Mo       0.91652    0.58292    0.06922    1.000
    S34      S        0.83336    0.66623    0.00014    1.000
    S35      S        0.83314    0.66629    0.13817    1.000
    Mo36     Mo       0.16644    0.83302    0.06932    1.000
    S37      S        0.08325    0.91638    0.00024    1.000
    S38      S        0.08300    0.91632    0.13823    1.000
    Mo39     Mo       0.41643    0.83314    0.06933    1.000
    S40      S        0.33305    0.91643    0.00035    1.000
    S41      S        0.33306    0.91649    0.13831    1.000
    Mo42     Mo       0.66649    0.83310    0.06899    1.000
    S43      S        0.58295    0.91652    0.00026    1.000
    S44      S        0.58319    0.91621    0.13824    1.000
    Mo45     Mo       0.91651    0.83287    0.06908    1.000
    S46      S        0.83328    0.91637    0.00015    1.000
    S47      S        0.83309    0.91621    0.13807    1.000
    C48      C        0.71779    0.74131    0.28828    1.000
    H49      H        0.69764    0.75591    0.33244    1.000
    H50      H        0.68106    0.77690    0.25698    1.000
    H51      H        0.81306    0.78517    0.28266    1.000
    S52      S        0.65999    0.58304    0.27550    1.000
    C53      C        0.50223    0.52912    0.28788    1.000
    H54      H        0.45614    0.43386    0.28189    1.000
    H55      H        0.48804    0.54941    0.33208    1.000
    H56      H        0.46883    0.56809    0.25664    1.000
