# CIF file generated by openbabel 3.1.0, see https://openbabel.org
data_I
_chemical_name_common ''
_cell_length_a 13.105
_cell_length_b 13.105
_cell_length_c 23.0122
_cell_angle_alpha 90
_cell_angle_beta 90
_cell_angle_gamma 120
loop_
    _atom_site_label
    _atom_site_type_symbol
    _atom_site_fract_x
    _atom_site_fract_y
    _atom_site_fract_z
    _atom_site_occupancy
    Mo0      Mo       0.16802    0.08214    0.06847    1.000
    S1       S        0.08460    0.16519    0.99935    1.000
    S2       S        0.08474    0.16571    0.13730    1.000
    Mo3      Mo       0.41801    0.08215    0.06857    1.000
    S4       S        0.33473    0.16543    0.99954    1.000
    S5       S        0.33467    0.16563    0.13753    1.000
    Mo6      Mo       0.66796    0.08214    0.06846    1.000
    S7       S        0.58449    0.16529    0.99948    1.000
    S8       S        0.58480    0.16567    0.13744    1.000
    Mo9      Mo       0.91798    0.08213    0.06837    1.000
    S10      S        0.83459    0.16552    0.99946    1.000
    S11      S        0.83467    0.16544    0.13741    1.000
    Mo12     Mo       0.16790    0.33207    0.06805    1.000
    S13      S        0.08452    0.41569    0.99941    1.000
    S14      S        0.08479    0.41527    0.13741    1.000
    Mo15     Mo       0.41813    0.33221    0.06843    1.000
    S16      S        0.33483    0.41551    0.99926    1.000
    S17      S        0.33430    0.41516    0.13707    1.000
    Mo18     Mo       0.66799    0.33213    0.06827    1.000
    S19      S        0.58465    0.41546    0.99934    1.000
    S20      S        0.58480    0.41532    0.13734    1.000
    Mo21     Mo       0.91797    0.33215    0.06846    1.000
    S22      S        0.83482    0.41563    0.99948    1.000
    S23      S        0.83445    0.41532    0.13744    1.000
    Mo24     Mo       0.16798    0.58210    0.06859    1.000
    S25      S        0.08472    0.66555    0.99966    1.000
    S26      S        0.08459    0.66539    0.13757    1.000
    Mo27     Mo       0.41807    0.58202    0.06842    1.000
    S28      S        0.33463    0.66549    0.99963    1.000
    S29      S        0.33480    0.66531    0.13759    1.000
    Mo30     Mo       0.66791    0.58198    0.06843    1.000
    S31      S        0.58460    0.66528    0.99927    1.000
    S32      S        0.58492    0.66576    0.13708    1.000
    Mo33     Mo       0.91797    0.58211    0.06857    1.000
    S34      S        0.83469    0.66539    0.99954    1.000
    S35      S        0.83449    0.66544    0.13753    1.000
    Mo36     Mo       0.16798    0.83214    0.06863    1.000
    S37      S        0.08472    0.91539    0.99956    1.000
    S38      S        0.08456    0.91555    0.13751    1.000
    Mo39     Mo       0.41802    0.83214    0.06859    1.000
    S40      S        0.33457    0.91540    0.99966    1.000
    S41      S        0.33473    0.91553    0.13757    1.000
    Mo42     Mo       0.66804    0.83220    0.06807    1.000
    S43      S        0.58442    0.91559    0.99941    1.000
    S44      S        0.58484    0.91533    0.13741    1.000
    Mo45     Mo       0.91797    0.83210    0.06848    1.000
    S46      S        0.83490    0.91550    0.99936    1.000
    S47      S        0.83441    0.91537    0.13731    1.000
    C48      C        0.55037    0.66344    0.29199    1.000
    H49      H        0.53579    0.67605    0.33744    1.000
    H50      H        0.50964    0.69991    0.26367    1.000
    H51      H        0.64474    0.70789    0.28329    1.000
    S52      S        0.49137    0.50585    0.27650    1.000
    C53      C        0.33444    0.45140    0.29184    1.000
    H54      H        0.28757    0.35694    0.28323    1.000
    H55      H        0.32252    0.46688    0.33725    1.000
    H56      H        0.30017    0.49403    0.26341    1.000
