# CIF file generated by openbabel 3.1.0, see https://openbabel.org
data_I
_chemical_name_common ''
_cell_length_a 13.105
_cell_length_b 13.105
_cell_length_c 23.0122
_cell_angle_alpha 90
_cell_angle_beta 90
_cell_angle_gamma 120
loop_
    _atom_site_label
    _atom_site_type_symbol
    _atom_site_fract_x
    _atom_site_fract_y
    _atom_site_fract_z
    _atom_site_occupancy
    Mo0      Mo       0.16627    0.08287    0.06929    1.000
    S1       S        0.08297    0.16601    0.00012    1.000
    S2       S        0.08306    0.16653    0.13812    1.000
    Mo3      Mo       0.41637    0.08289    0.06923    1.000
    S4       S        0.33301    0.16630    0.00037    1.000
    S5       S        0.33299    0.16605    0.13827    1.000
    Mo6      Mo       0.66631    0.08289    0.06909    1.000
    S7       S        0.58289    0.16616    0.00012    1.000
    S8       S        0.58316    0.16633    0.13812    1.000
    Mo9      Mo       0.91634    0.08290    0.06914    1.000
    S10      S        0.83302    0.16624    0.00014    1.000
    S11      S        0.83294    0.16621    0.13803    1.000
    Mo12     Mo       0.16626    0.33287    0.06884    1.000
    S13      S        0.08296    0.41643    0.00011    1.000
    S14      S        0.08305    0.41602    0.13811    1.000
    Mo15     Mo       0.41643    0.33297    0.06942    1.000
    S16      S        0.33337    0.41642    0.00025    1.000
    S17      S        0.33247    0.41601    0.13798    1.000
    Mo18     Mo       0.66643    0.33289    0.06900    1.000
    S19      S        0.58294    0.41635    0.00033    1.000
    S20      S        0.58313    0.41567    0.13827    1.000
    Mo21     Mo       0.91634    0.33292    0.06913    1.000
    S22      S        0.83326    0.41661    0.00022    1.000
    S23      S        0.83294    0.41605    0.13820    1.000
    Mo24     Mo       0.16627    0.58288    0.06927    1.000
    S25      S        0.08293    0.66631    0.00040    1.000
    S26      S        0.08301    0.66617    0.13834    1.000
    Mo27     Mo       0.41643    0.58296    0.06940    1.000
    S28      S        0.33301    0.66619    0.00035    1.000
    S29      S        0.33296    0.66642    0.13825    1.000
    Mo30     Mo       0.66601    0.58273    0.06961    1.000
    S31      S        0.58296    0.66607    0.00033    1.000
    S32      S        0.58312    0.66690    0.13827    1.000
    Mo33     Mo       0.91627    0.58292    0.06941    1.000
    S34      S        0.83261    0.66605    0.00055    1.000
    S35      S        0.83282    0.66614    0.13851    1.000
    Mo36     Mo       0.16631    0.83289    0.06939    1.000
    S37      S        0.08293    0.91611    0.00041    1.000
    S38      S        0.08301    0.91631    0.13835    1.000
    Mo39     Mo       0.41637    0.83297    0.06922    1.000
    S40      S        0.33281    0.91615    0.00033    1.000
    S41      S        0.33316    0.91632    0.13825    1.000
    Mo42     Mo       0.66644    0.83301    0.06901    1.000
    S43      S        0.58290    0.91620    0.00012    1.000
    S44      S        0.58315    0.91630    0.13812    1.000
    Mo45     Mo       0.91627    0.83283    0.06941    1.000
    S46      S        0.83327    0.91613    0.00023    1.000
    S47      S        0.83294    0.91636    0.13821    1.000
    C48      C        0.39559    0.55630    0.28760    1.000
    H49      H        0.36813    0.54139    0.33299    1.000
    H50      H        0.31838    0.51700    0.25926    1.000
    H51      H        0.44682    0.65073    0.27928    1.000
    S52      S        0.49233    0.49536    0.27180    1.000
    C53      C        0.38903    0.33895    0.28751    1.000
    H54      H        0.43604    0.29141    0.27919    1.000
    H55      H        0.36162    0.32758    0.33290    1.000
    H56      H        0.31202    0.30465    0.25915    1.000
