# CIF file generated by openbabel 3.1.0, see https://openbabel.org
data_I
_chemical_name_common ''
_cell_length_a 13.105
_cell_length_b 13.105
_cell_length_c 23.0122
_cell_angle_alpha 90
_cell_angle_beta 90
_cell_angle_gamma 120
loop_
    _atom_site_label
    _atom_site_type_symbol
    _atom_site_fract_x
    _atom_site_fract_y
    _atom_site_fract_z
    _atom_site_occupancy
    Mo0      Mo       0.16481    0.08510    0.06843    1.000
    S1       S        0.08135    0.16830    0.99945    1.000
    S2       S        0.08154    0.16846    0.13740    1.000
    Mo3      Mo       0.41488    0.08522    0.06855    1.000
    S4       S        0.33152    0.16840    0.99946    1.000
    S5       S        0.33156    0.16869    0.13746    1.000
    Mo6      Mo       0.66481    0.08531    0.06858    1.000
    S7       S        0.58151    0.16867    0.99963    1.000
    S8       S        0.58141    0.16868    0.13768    1.000
    Mo9      Mo       0.91477    0.08511    0.06848    1.000
    S10      S        0.83139    0.16849    0.99959    1.000
    S11      S        0.83146    0.16840    0.13755    1.000
    Mo12     Mo       0.16453    0.33505    0.06834    1.000
    S13      S        0.08107    0.41838    0.99948    1.000
    S14      S        0.08139    0.41840    0.13743    1.000
    Mo15     Mo       0.41481    0.33530    0.06823    1.000
    S16      S        0.33116    0.41843    0.99929    1.000
    S17      S        0.33127    0.41864    0.13713    1.000
    Mo18     Mo       0.66454    0.33533    0.06864    1.000
    S19      S        0.58142    0.41847    0.99929    1.000
    S20      S        0.58115    0.41879    0.13719    1.000
    Mo21     Mo       0.91456    0.33506    0.06858    1.000
    S22      S        0.83121    0.41836    0.99963    1.000
    S23      S        0.83120    0.41848    0.13768    1.000
    Mo24     Mo       0.16469    0.58508    0.06843    1.000
    S25      S        0.08132    0.66840    0.99954    1.000
    S26      S        0.08143    0.66836    0.13748    1.000
    Mo27     Mo       0.41467    0.58524    0.06822    1.000
    S28      S        0.33132    0.66857    0.99937    1.000
    S29      S        0.33147    0.66842    0.13733    1.000
    Mo30     Mo       0.66461    0.58511    0.06820    1.000
    S31      S        0.58146    0.66874    0.99928    1.000
    S32      S        0.58128    0.66862    0.13714    1.000
    Mo33     Mo       0.91467    0.58501    0.06854    1.000
    S34      S        0.83152    0.66840    0.99945    1.000
    S35      S        0.83121    0.66834    0.13744    1.000
    Mo36     Mo       0.16480    0.83509    0.06852    1.000
    S37      S        0.08155    0.91837    0.99949    1.000
    S38      S        0.08144    0.91845    0.13745    1.000
    Mo39     Mo       0.41479    0.83519    0.06843    1.000
    S40      S        0.33148    0.91858    0.99955    1.000
    S41      S        0.33151    0.91845    0.13748    1.000
    Mo42     Mo       0.66484    0.83536    0.06833    1.000
    S43      S        0.58149    0.91881    0.99948    1.000
    S44      S        0.58147    0.91849    0.13743    1.000
    Mo45     Mo       0.91480    0.83509    0.06843    1.000
    S46      S        0.83159    0.91855    0.99944    1.000
    S47      S        0.83142    0.91835    0.13739    1.000
    C48      C        0.64591    0.56194    0.29163    1.000
    H49      H        0.61424    0.59051    0.32855    1.000
    H50      H        0.61847    0.58462    0.25114    1.000
    H51      H        0.74177    0.60579    0.29298    1.000
    S52      S        0.58969    0.40216    0.29553    1.000
    C53      C        0.43101    0.35163    0.29202    1.000
    H54      H        0.38406    0.25569    0.29370    1.000
    H55      H        0.40482    0.38561    0.32893    1.000
    H56      H        0.40944    0.38000    0.25151    1.000
