# CIF file generated by openbabel 3.1.0, see https://openbabel.org
data_I
_chemical_name_common ''
_cell_length_a 13.105
_cell_length_b 13.105
_cell_length_c 23.0122
_cell_angle_alpha 90
_cell_angle_beta 90
_cell_angle_gamma 120
loop_
    _atom_site_label
    _atom_site_type_symbol
    _atom_site_fract_x
    _atom_site_fract_y
    _atom_site_fract_z
    _atom_site_occupancy
    Mo0      Mo       0.16941    0.08500    0.06857    1.000
    S1       S        0.08610    0.16835    0.99965    1.000
    S2       S        0.08606    0.16828    0.13753    1.000
    Mo3      Mo       0.41925    0.08485    0.06853    1.000
    S4       S        0.33604    0.16830    0.99958    1.000
    S5       S        0.33627    0.16856    0.13748    1.000
    Mo6      Mo       0.66927    0.08485    0.06841    1.000
    S7       S        0.58573    0.16797    0.99943    1.000
    S8       S        0.58601    0.16829    0.13735    1.000
    Mo9      Mo       0.91941    0.08503    0.06857    1.000
    S10      S        0.83610    0.16827    0.99958    1.000
    S11      S        0.83580    0.16812    0.13747    1.000
    Mo12     Mo       0.16951    0.33497    0.06859    1.000
    S13      S        0.08609    0.41818    0.99965    1.000
    S14      S        0.08606    0.41821    0.13753    1.000
    Mo15     Mo       0.41982    0.33511    0.06834    1.000
    S16      S        0.33626    0.41836    0.99958    1.000
    S17      S        0.33658    0.41850    0.13748    1.000
    Mo18     Mo       0.66949    0.33485    0.06822    1.000
    S19      S        0.58644    0.41845    0.99927    1.000
    S20      S        0.58670    0.41846    0.13710    1.000
    Mo21     Mo       0.91941    0.33482    0.06857    1.000
    S22      S        0.83637    0.41817    0.99949    1.000
    S23      S        0.83592    0.41816    0.13743    1.000
    Mo24     Mo       0.16941    0.58484    0.06857    1.000
    S25      S        0.08621    0.66827    0.99959    1.000
    S26      S        0.08592    0.66817    0.13748    1.000
    Mo27     Mo       0.41983    0.58514    0.06836    1.000
    S28      S        0.33604    0.66817    0.99958    1.000
    S29      S        0.33626    0.66814    0.13748    1.000
    Mo30     Mo       0.66979    0.58509    0.06835    1.000
    S31      S        0.58644    0.66841    0.99929    1.000
    S32      S        0.58672    0.66864    0.13712    1.000
    Mo33     Mo       0.91945    0.58492    0.06844    1.000
    S34      S        0.83643    0.66843    0.99944    1.000
    S35      S        0.83615    0.66829    0.13743    1.000
    Mo36     Mo       0.16934    0.83489    0.06858    1.000
    S37      S        0.08621    0.91837    0.99958    1.000
    S38      S        0.08592    0.91819    0.13748    1.000
    Mo39     Mo       0.41925    0.83483    0.06853    1.000
    S40      S        0.33585    0.91814    0.99964    1.000
    S41      S        0.33596    0.91819    0.13752    1.000
    Mo42     Mo       0.66950    0.83507    0.06823    1.000
    S43      S        0.58574    0.91818    0.99944    1.000
    S44      S        0.58601    0.91815    0.13736    1.000
    Mo45     Mo       0.91945    0.83497    0.06844    1.000
    S46      S        0.83636    0.91863    0.99950    1.000
    S47      S        0.83593    0.91820    0.13744    1.000
    C48      C        0.54236    0.62678    0.29200    1.000
    H49      H        0.51268    0.61152    0.33708    1.000
    H50      H        0.46661    0.58583    0.26278    1.000
    H51      H        0.59203    0.72126    0.28360    1.000
    S52      S        0.64271    0.56924    0.27815    1.000
    C53      C        0.53971    0.41186    0.29189    1.000
    H54      H        0.58771    0.36528    0.28364    1.000
    H55      H        0.50969    0.39798    0.33691    1.000
    H56      H        0.46427    0.37857    0.26253    1.000
