# CIF file generated by openbabel 3.1.0, see https://openbabel.org
data_I
_chemical_name_common ''
_cell_length_a 13.105
_cell_length_b 13.105
_cell_length_c 23.0122
_cell_angle_alpha 90
_cell_angle_beta 90
_cell_angle_gamma 120
loop_
    _atom_site_label
    _atom_site_type_symbol
    _atom_site_fract_x
    _atom_site_fract_y
    _atom_site_fract_z
    _atom_site_occupancy
    Mo0      Mo       0.16245    0.08115    0.06816    1.000
    S1       S        0.07903    0.16451    0.99923    1.000
    S2       S        0.07945    0.16473    0.13717    1.000
    Mo3      Mo       0.41276    0.08140    0.06840    1.000
    S4       S        0.32921    0.16435    0.99920    1.000
    S5       S        0.32900    0.16463    0.13705    1.000
    Mo6      Mo       0.66279    0.08140    0.06857    1.000
    S7       S        0.57959    0.16481    0.99956    1.000
    S8       S        0.57934    0.16475    0.13758    1.000
    Mo9      Mo       0.91264    0.08132    0.06838    1.000
    S10      S        0.82929    0.16478    0.99951    1.000
    S11      S        0.82954    0.16478    0.13747    1.000
    Mo12     Mo       0.16245    0.33130    0.06815    1.000
    S13      S        0.07916    0.41493    0.99939    1.000
    S14      S        0.07942    0.41464    0.13735    1.000
    Mo15     Mo       0.41253    0.33124    0.06796    1.000
    S16      S        0.32922    0.41482    0.99919    1.000
    S17      S        0.32902    0.41433    0.13704    1.000
    Mo18     Mo       0.66257    0.33148    0.06856    1.000
    S19      S        0.57946    0.41472    0.99932    1.000
    S20      S        0.57870    0.41434    0.13722    1.000
    Mo21     Mo       0.91263    0.33144    0.06849    1.000
    S22      S        0.82931    0.41487    0.99964    1.000
    S23      S        0.82924    0.41465    0.13767    1.000
    Mo24     Mo       0.16277    0.58143    0.06848    1.000
    S25      S        0.07929    0.66465    0.99958    1.000
    S26      S        0.07964    0.66483    0.13755    1.000
    Mo27     Mo       0.41277    0.58134    0.06838    1.000
    S28      S        0.32951    0.66480    0.99951    1.000
    S29      S        0.32951    0.66460    0.13744    1.000
    Mo30     Mo       0.66256    0.58107    0.06856    1.000
    S31      S        0.57960    0.66478    0.99955    1.000
    S32      S        0.57936    0.66461    0.13756    1.000
    Mo33     Mo       0.91271    0.58136    0.06870    1.000
    S34      S        0.82929    0.66442    0.99963    1.000
    S35      S        0.82922    0.66458    0.13767    1.000
    Mo36     Mo       0.16277    0.83135    0.06848    1.000
    S37      S        0.07916    0.91424    0.99939    1.000
    S38      S        0.07940    0.91478    0.13735    1.000
    Mo39     Mo       0.41284    0.83141    0.06854    1.000
    S40      S        0.32951    0.91469    0.99951    1.000
    S41      S        0.32949    0.91487    0.13745    1.000
    Mo42     Mo       0.66279    0.83139    0.06855    1.000
    S43      S        0.57947    0.91475    0.99959    1.000
    S44      S        0.57951    0.91475    0.13756    1.000
    Mo45     Mo       0.91262    0.83118    0.06848    1.000
    S46      S        0.82929    0.91452    0.99950    1.000
    S47      S        0.82953    0.91476    0.13746    1.000
    C48      C        0.49595    0.48527    0.29198    1.000
    H49      H        0.43563    0.45211    0.32887    1.000
    H50      H        0.44594    0.45824    0.25145    1.000
    H51      H        0.54684    0.58114    0.29387    1.000
    S52      S        0.60113    0.43099    0.29527    1.000
    C53      C        0.49444    0.27189    0.29172    1.000
    H54      H        0.54446    0.22596    0.29301    1.000
    H55      H        0.43465    0.24498    0.32881    1.000
    H56      H        0.44400    0.24995    0.25135    1.000
