# CIF file generated by openbabel 3.1.0, see https://openbabel.org
data_I
_chemical_name_common ''
_cell_length_a 13.105
_cell_length_b 13.105
_cell_length_c 23.0122
_cell_angle_alpha 90
_cell_angle_beta 90
_cell_angle_gamma 120
loop_
    _atom_site_label
    _atom_site_type_symbol
    _atom_site_fract_x
    _atom_site_fract_y
    _atom_site_fract_z
    _atom_site_occupancy
    C0       C        0.48286    0.61499    0.47889    1.000
    H1       H        0.42918    0.59140    0.51816    1.000
    H2       H        0.42624    0.58774    0.44059    1.000
    H3       H        0.54120    0.71012    0.47773    1.000
    S4       S        0.57761    0.54834    0.47890    1.000
    C5       C        0.46266    0.39174    0.47890    1.000
    H6       H        0.50779    0.34096    0.47813    1.000
    H7       H        0.40860    0.36956    0.51799    1.000
    H8       H        0.40706    0.37051    0.44041    1.000
