# CIF file generated by openbabel 3.1.0, see https://openbabel.org
data_I
_chemical_name_common ''
_cell_length_a 13.105
_cell_length_b 13.105
_cell_length_c 23.0122
_cell_angle_alpha 90
_cell_angle_beta 90
_cell_angle_gamma 120
loop_
    _atom_site_label
    _atom_site_type_symbol
    _atom_site_fract_x
    _atom_site_fract_y
    _atom_site_fract_z
    _atom_site_occupancy
    Mo0      Mo       0.16981    0.08566    0.06813    1.000
    S1       S        0.08694    0.16924    0.99907    1.000
    S2       S        0.08644    0.16887    0.13720    1.000
    Mo3      Mo       0.41974    0.08559    0.06812    1.000
    S4       S        0.33681    0.16951    0.99938    1.000
    S5       S        0.33629    0.16830    0.13726    1.000
    Mo6      Mo       0.66963    0.08538    0.06818    1.000
    S7       S        0.58655    0.16911    0.99935    1.000
    S8       S        0.58640    0.16888    0.13724    1.000
    Mo9      Mo       0.91987    0.08559    0.06796    1.000
    S10      S        0.83613    0.16879    0.99911    1.000
    S11      S        0.83639    0.16861    0.13702    1.000
    Mo12     Mo       0.16981    0.33555    0.06822    1.000
    S13      S        0.08644    0.41874    0.99922    1.000
    S14      S        0.08629    0.41892    0.13718    1.000
    Mo15     Mo       0.41982    0.33553    0.06875    1.000
    S16      S        0.33678    0.41861    0.99945    1.000
    S17      S        0.33632    0.41921    0.13731    1.000
    Mo18     Mo       0.66974    0.33563    0.06832    1.000
    S19      S        0.58626    0.41878    0.99956    1.000
    S20      S        0.58637    0.41881    0.13763    1.000
    Mo21     Mo       0.91967    0.33540    0.06817    1.000
    S22      S        0.83631    0.41881    0.99929    1.000
    S23      S        0.83642    0.41893    0.13713    1.000
    Mo24     Mo       0.16974    0.58547    0.06810    1.000
    S25      S        0.08624    0.66880    0.99914    1.000
    S26      S        0.08652    0.66904    0.13700    1.000
    Mo27     Mo       0.41978    0.58545    0.06820    1.000
    S28      S        0.33642    0.66843    0.99907    1.000
    S29      S        0.33630    0.66872    0.13713    1.000
    Mo30     Mo       0.66974    0.58539    0.06836    1.000
    S31      S        0.58652    0.66866    0.99941    1.000
    S32      S        0.58645    0.66884    0.13734    1.000
    Mo33     Mo       0.91979    0.58555    0.06817    1.000
    S34      S        0.83623    0.66867    0.99927    1.000
    S35      S        0.83650    0.66887    0.13712    1.000
    Mo36     Mo       0.16968    0.83567    0.06801    1.000
    S37      S        0.08635    0.91909    0.99910    1.000
    S38      S        0.08624    0.91879    0.13706    1.000
    Mo39     Mo       0.41941    0.83537    0.06804    1.000
    S40      S        0.33637    0.91924    0.99901    1.000
    S41      S        0.33620    0.91891    0.13705    1.000
    Mo42     Mo       0.66958    0.83551    0.06823    1.000
    S43      S        0.58607    0.91864    0.99919    1.000
    S44      S        0.58602    0.91873    0.13711    1.000
    Mo45     Mo       0.91959    0.83557    0.06808    1.000
    S46      S        0.83596    0.91863    0.99908    1.000
    S47      S        0.83640    0.91903    0.13702    1.000
    C48      C        0.47364    0.47340    0.30365    1.000
    H49      H        0.56560    0.51825    0.28967    1.000
    H50      H        0.46902    0.47004    0.35100    1.000
    H51      H        0.43161    0.52153    0.28735    1.000
    S52      S        0.39204    0.32352    0.27310    1.000
    C53      C        0.47506    0.26019    0.30727    1.000
    H54      H        0.43469    0.16887    0.29286    1.000
    H55      H        0.56726    0.30761    0.29369    1.000
    H56      H        0.46923    0.26229    0.35450    1.000
