# CIF file generated by openbabel 3.1.0, see https://openbabel.org
data_I
_chemical_name_common ''
_cell_length_a 13.105
_cell_length_b 13.105
_cell_length_c 23.0122
_cell_angle_alpha 90
_cell_angle_beta 90
_cell_angle_gamma 120
loop_
    _atom_site_label
    _atom_site_type_symbol
    _atom_site_fract_x
    _atom_site_fract_y
    _atom_site_fract_z
    _atom_site_occupancy
    Mo0      Mo       0.16322    0.08163    0.06580    1.000
    S1       S        0.07977    0.16489    0.99688    1.000
    S2       S        0.07997    0.16507    0.13484    1.000
    Mo3      Mo       0.41310    0.08171    0.06598    1.000
    S4       S        0.32993    0.16503    0.99694    1.000
    S5       S        0.32959    0.16482    0.13492    1.000
    Mo6      Mo       0.66310    0.08163    0.06591    1.000
    S7       S        0.57966    0.16480    0.99693    1.000
    S8       S        0.57991    0.16524    0.13489    1.000
    Mo9      Mo       0.91311    0.08162    0.06588    1.000
    S10      S        0.82973    0.16490    0.99693    1.000
    S11      S        0.82983    0.16501    0.13482    1.000
    Mo12     Mo       0.16309    0.33163    0.06573    1.000
    S13      S        0.07983    0.41507    0.99688    1.000
    S14      S        0.07982    0.41491    0.13480    1.000
    Mo15     Mo       0.41320    0.33158    0.06602    1.000
    S16      S        0.32993    0.41495    0.99691    1.000
    S17      S        0.32936    0.41482    0.13473    1.000
    Mo18     Mo       0.66324    0.33167    0.06570    1.000
    S19      S        0.57975    0.41490    0.99677    1.000
    S20      S        0.58056    0.41537    0.13452    1.000
    Mo21     Mo       0.91315    0.33164    0.06584    1.000
    S22      S        0.82995    0.41504    0.99684    1.000
    S23      S        0.82976    0.41500    0.13477    1.000
    Mo24     Mo       0.16317    0.58165    0.06591    1.000
    S25      S        0.07996    0.66507    0.99692    1.000
    S26      S        0.07977    0.66493    0.13485    1.000
    Mo27     Mo       0.41315    0.58157    0.06592    1.000
    S28      S        0.32985    0.66500    0.99702    1.000
    S29      S        0.32983    0.66483    0.13493    1.000
    Mo30     Mo       0.66323    0.58174    0.06561    1.000
    S31      S        0.57967    0.66505    0.99686    1.000
    S32      S        0.57988    0.66476    0.13484    1.000
    Mo33     Mo       0.91321    0.58168    0.06582    1.000
    S34      S        0.83002    0.66511    0.99681    1.000
    S35      S        0.82966    0.66486    0.13474    1.000
    Mo36     Mo       0.16316    0.83165    0.06595    1.000
    S37      S        0.07991    0.91497    0.99693    1.000
    S38      S        0.07982    0.91504    0.13486    1.000
    Mo39     Mo       0.41314    0.83163    0.06601    1.000
    S40      S        0.32985    0.91502    0.99706    1.000
    S41      S        0.32980    0.91504    0.13497    1.000
    Mo42     Mo       0.66309    0.83159    0.06590    1.000
    S43      S        0.57968    0.91492    0.99701    1.000
    S44      S        0.57988    0.91499    0.13492    1.000
    Mo45     Mo       0.91317    0.83166    0.06585    1.000
    S46      S        0.82974    0.91495    0.99693    1.000
    S47      S        0.82982    0.91495    0.13482    1.000
    C48      C        0.54202    0.38195    0.32580    1.000
    H49      H        0.53075    0.29906    0.34251    1.000
    H50      H        0.53379    0.43303    0.36103    1.000
    H51      H        0.62900    0.43248    0.30613    1.000
    S52      S        0.43416    0.35529    0.26810    1.000
    C53      C        0.29644    0.26978    0.30934    1.000
    H54      H        0.22427    0.24680    0.27894    1.000
    H55      H        0.28994    0.18916    0.32657    1.000
    H56      H        0.29098    0.32237    0.34466    1.000
