# CIF file generated by openbabel 3.1.0, see https://openbabel.org
data_I
_chemical_name_common ''
_cell_length_a 13.105
_cell_length_b 13.105
_cell_length_c 23.0122
_cell_angle_alpha 90
_cell_angle_beta 90
_cell_angle_gamma 120
loop_
    _atom_site_label
    _atom_site_type_symbol
    _atom_site_fract_x
    _atom_site_fract_y
    _atom_site_fract_z
    _atom_site_occupancy
    Mo0      Mo       0.16625    0.08444    0.06315    1.000
    S1       S        0.08275    0.16769    0.99426    1.000
    S2       S        0.08297    0.16780    0.13213    1.000
    Mo3      Mo       0.41615    0.08459    0.06317    1.000
    S4       S        0.33268    0.16754    0.99405    1.000
    S5       S        0.33309    0.16825    0.13205    1.000
    Mo6      Mo       0.66611    0.08460    0.06326    1.000
    S7       S        0.58275    0.16774    0.99419    1.000
    S8       S        0.58282    0.16831    0.13217    1.000
    Mo9      Mo       0.91619    0.08449    0.06325    1.000
    S10      S        0.83276    0.16775    0.99432    1.000
    S11      S        0.83280    0.16788    0.13220    1.000
    Mo12     Mo       0.16607    0.33445    0.06315    1.000
    S13      S        0.08262    0.41774    0.99426    1.000
    S14      S        0.08265    0.41768    0.13215    1.000
    Mo15     Mo       0.41601    0.33455    0.06273    1.000
    S16      S        0.33248    0.41791    0.99403    1.000
    S17      S        0.33295    0.41773    0.13202    1.000
    Mo18     Mo       0.66602    0.33470    0.06289    1.000
    S19      S        0.58273    0.41797    0.99362    1.000
    S20      S        0.58260    0.41830    0.13120    1.000
    Mo21     Mo       0.91596    0.33449    0.06319    1.000
    S22      S        0.83279    0.41780    0.99411    1.000
    S23      S        0.83232    0.41773    0.13212    1.000
    Mo24     Mo       0.16602    0.58436    0.06323    1.000
    S25      S        0.08276    0.66767    0.99428    1.000
    S26      S        0.08253    0.66756    0.13216    1.000
    Mo27     Mo       0.41609    0.58446    0.06309    1.000
    S28      S        0.33268    0.66785    0.99428    1.000
    S29      S        0.33280    0.66764    0.13214    1.000
    Mo30     Mo       0.66616    0.58472    0.06269    1.000
    S31      S        0.58272    0.66826    0.99405    1.000
    S32      S        0.58287    0.66769    0.13204    1.000
    Mo33     Mo       0.91593    0.58435    0.06315    1.000
    S34      S        0.83312    0.66804    0.99403    1.000
    S35      S        0.83243    0.66761    0.13202    1.000
    Mo36     Mo       0.16614    0.83435    0.06324    1.000
    S37      S        0.08296    0.91770    0.99424    1.000
    S38      S        0.08290    0.91775    0.13214    1.000
    Mo39     Mo       0.41615    0.83448    0.06326    1.000
    S40      S        0.33282    0.91771    0.99430    1.000
    S41      S        0.33288    0.91792    0.13217    1.000
    Mo42     Mo       0.66619    0.83464    0.06320    1.000
    S43      S        0.58282    0.91798    0.99432    1.000
    S44      S        0.58284    0.91790    0.13221    1.000
    Mo45     Mo       0.91623    0.83446    0.06314    1.000
    S46      S        0.83293    0.91794    0.99428    1.000
    S47      S        0.83291    0.91776    0.13215    1.000
    C48      C        0.59015    0.51384    0.32911    1.000
    H49      H        0.66772    0.55402    0.35709    1.000
    H50      H        0.51020    0.47444    0.35542    1.000
    H51      H        0.59086    0.58115    0.30100    1.000
    S52      S        0.59237    0.40231    0.28116    1.000
    C53      C        0.58452    0.29689    0.33634    1.000
    H54      H        0.58161    0.22334    0.31278    1.000
    H55      H        0.66211    0.33690    0.36429    1.000
    H56      H        0.50472    0.26485    0.36237    1.000
