# CIF file generated by openbabel 3.1.0, see https://openbabel.org
data_I
_chemical_name_common ''
_cell_length_a 13.105
_cell_length_b 13.105
_cell_length_c 23.0122
_cell_angle_alpha 90
_cell_angle_beta 90
_cell_angle_gamma 120
loop_
    _atom_site_label
    _atom_site_type_symbol
    _atom_site_fract_x
    _atom_site_fract_y
    _atom_site_fract_z
    _atom_site_occupancy
    Mo0      Mo       0.16382    0.08208    0.06694    1.000
    S1       S        0.08053    0.16546    0.99796    1.000
    S2       S        0.08061    0.16549    0.13597    1.000
    Mo3      Mo       0.41418    0.08235    0.06706    1.000
    S4       S        0.33056    0.16539    0.99806    1.000
    S5       S        0.33029    0.16535    0.13590    1.000
    Mo6      Mo       0.66420    0.08249    0.06709    1.000
    S7       S        0.58083    0.16578    0.99808    1.000
    S8       S        0.58079    0.16582    0.13610    1.000
    Mo9      Mo       0.91401    0.08223    0.06703    1.000
    S10      S        0.83080    0.16578    0.99810    1.000
    S11      S        0.83084    0.16580    0.13603    1.000
    Mo12     Mo       0.16383    0.33210    0.06695    1.000
    S13      S        0.08084    0.41578    0.99802    1.000
    S14      S        0.08088    0.41567    0.13602    1.000
    Mo15     Mo       0.41386    0.33212    0.06699    1.000
    S16      S        0.33056    0.41551    0.99806    1.000
    S17      S        0.33029    0.41526    0.13592    1.000
    Mo18     Mo       0.66419    0.33238    0.06702    1.000
    S19      S        0.58077    0.41565    0.99807    1.000
    S20      S        0.58081    0.41568    0.13576    1.000
    Mo21     Mo       0.91419    0.33248    0.06706    1.000
    S22      S        0.83088    0.41578    0.99805    1.000
    S23      S        0.83078    0.41575    0.13609    1.000
    Mo24     Mo       0.16444    0.58237    0.06706    1.000
    S25      S        0.08112    0.66574    0.99812    1.000
    S26      S        0.08108    0.66572    0.13599    1.000
    Mo27     Mo       0.41417    0.58219    0.06707    1.000
    S28      S        0.33118    0.66576    0.99810    1.000
    S29      S        0.33112    0.66568    0.13608    1.000
    Mo30     Mo       0.66420    0.58235    0.06702    1.000
    S31      S        0.58082    0.66557    0.99808    1.000
    S32      S        0.58082    0.66555    0.13609    1.000
    Mo33     Mo       0.91423    0.58234    0.06706    1.000
    S34      S        0.83089    0.66558    0.99805    1.000
    S35      S        0.83078    0.66550    0.13610    1.000
    Mo36     Mo       0.16444    0.83242    0.06706    1.000
    S37      S        0.08083    0.91541    0.99802    1.000
    S38      S        0.08088    0.91557    0.13601    1.000
    Mo39     Mo       0.41448    0.83242    0.06710    1.000
    S40      S        0.33118    0.91574    0.99809    1.000
    S41      S        0.33113    0.91578    0.13607    1.000
    Mo42     Mo       0.66421    0.83225    0.06707    1.000
    S43      S        0.58112    0.91582    0.99811    1.000
    S44      S        0.58112    0.91582    0.13608    1.000
    Mo45     Mo       0.91419    0.83215    0.06706    1.000
    S46      S        0.83082    0.91548    0.99809    1.000
    S47      S        0.83084    0.91552    0.13603    1.000
    C48      C        0.50457    0.48782    0.28654    1.000
    H49      H        0.42587    0.44499    0.25928    1.000
    H50      H        0.58325    0.52713    0.25922    1.000
    H51      H        0.50255    0.55669    0.31220    1.000
    S52      S        0.50666    0.38188    0.33834    1.000
    C53      C        0.49975    0.27093    0.28697    1.000
    H54      H        0.49322    0.19833    0.31292    1.000
    H55      H        0.42190    0.23841    0.25932    1.000
    H56      H        0.57890    0.30691    0.26006    1.000
