# CIF file generated by openbabel 3.1.0, see https://openbabel.org
data_I
_chemical_name_common ''
_cell_length_a 13.105
_cell_length_b 13.105
_cell_length_c 23.0122
_cell_angle_alpha 90
_cell_angle_beta 90
_cell_angle_gamma 120
loop_
    _atom_site_label
    _atom_site_type_symbol
    _atom_site_fract_x
    _atom_site_fract_y
    _atom_site_fract_z
    _atom_site_occupancy
    Mo0      Mo       0.16678    0.08330    0.06717    1.000
    S1       S        0.08345    0.16670    0.99825    1.000
    S2       S        0.08368    0.16683    0.13620    1.000
    Mo3      Mo       0.41673    0.08329    0.06724    1.000
    S4       S        0.33337    0.16648    0.99816    1.000
    S5       S        0.33342    0.16673    0.13614    1.000
    Mo6      Mo       0.66681    0.08333    0.06728    1.000
    S7       S        0.58334    0.16644    0.99823    1.000
    S8       S        0.58347    0.16682    0.13622    1.000
    Mo9      Mo       0.91689    0.08343    0.06729    1.000
    S10      S        0.83346    0.16653    0.99827    1.000
    S11      S        0.83355    0.16678    0.13624    1.000
    Mo12     Mo       0.16676    0.33344    0.06716    1.000
    S13      S        0.08342    0.41677    0.99819    1.000
    S14      S        0.08333    0.41663    0.13617    1.000
    Mo15     Mo       0.41656    0.33328    0.06701    1.000
    S16      S        0.33336    0.41687    0.99815    1.000
    S17      S        0.33339    0.41668    0.13613    1.000
    Mo18     Mo       0.66670    0.33324    0.06702    1.000
    S19      S        0.58333    0.41668    0.99800    1.000
    S20      S        0.58325    0.41665    0.13564    1.000
    Mo21     Mo       0.91674    0.33329    0.06715    1.000
    S22      S        0.83337    0.41655    0.99812    1.000
    S23      S        0.83327    0.41653    0.13608    1.000
    Mo24     Mo       0.16660    0.58331    0.06726    1.000
    S25      S        0.08329    0.66662    0.99825    1.000
    S26      S        0.08299    0.66647    0.13620    1.000
    Mo27     Mo       0.41673    0.58343    0.06723    1.000
    S28      S        0.33334    0.66683    0.99835    1.000
    S29      S        0.33326    0.66655    0.13629    1.000
    Mo30     Mo       0.66671    0.58349    0.06701    1.000
    S31      S        0.58336    0.66695    0.99821    1.000
    S32      S        0.58348    0.66668    0.13620    1.000
    Mo33     Mo       0.91651    0.58324    0.06712    1.000
    S34      S        0.83339    0.66681    0.99811    1.000
    S35      S        0.83328    0.66673    0.13607    1.000
    Mo36     Mo       0.16661    0.83325    0.06726    1.000
    S37      S        0.08346    0.91663    0.99820    1.000
    S38      S        0.08335    0.91667    0.13617    1.000
    Mo39     Mo       0.41671    0.83334    0.06739    1.000
    S40      S        0.33335    0.91649    0.99835    1.000
    S41      S        0.33326    0.91667    0.13629    1.000
    Mo42     Mo       0.66682    0.83350    0.06727    1.000
    S43      S        0.58331    0.91667    0.99835    1.000
    S44      S        0.58350    0.91675    0.13631    1.000
    Mo45     Mo       0.91677    0.83345    0.06715    1.000
    S46      S        0.83349    0.91692    0.99827    1.000
    S47      S        0.83357    0.91675    0.13624    1.000
    C48      C        0.46174    0.35910    0.28674    1.000
    H49      H        0.46266    0.29139    0.25943    1.000
    H50      H        0.46402    0.42839    0.25943    1.000
    H51      H        0.38145    0.31954    0.31271    1.000
    S52      S        0.58631    0.42035    0.33792    1.000
    C53      C        0.70870    0.47920    0.28549    1.000
    H54      H        0.79011    0.51885    0.31059    1.000
    H55      H        0.70446    0.40871    0.25841    1.000
    H56      H        0.70733    0.54646    0.25799    1.000
