# CIF file generated by openbabel 3.1.0, see https://openbabel.org
data_I
_chemical_name_common ''
_cell_length_a 13.105
_cell_length_b 13.105
_cell_length_c 23.0122
_cell_angle_alpha 90
_cell_angle_beta 90
_cell_angle_gamma 120
loop_
    _atom_site_label
    _atom_site_type_symbol
    _atom_site_fract_x
    _atom_site_fract_y
    _atom_site_fract_z
    _atom_site_occupancy
    Mo0      Mo       0.16655    0.08345    0.06771    1.000
    S1       S        0.08314    0.16674    0.99876    1.000
    S2       S        0.08322    0.16677    0.13674    1.000
    Mo3      Mo       0.41670    0.08356    0.06762    1.000
    S4       S        0.33311    0.16666    0.99864    1.000
    S5       S        0.33339    0.16695    0.13663    1.000
    Mo6      Mo       0.66669    0.08344    0.06754    1.000
    S7       S        0.58330    0.16672    0.99854    1.000
    S8       S        0.58347    0.16678    0.13651    1.000
    Mo9      Mo       0.91661    0.08346    0.06774    1.000
    S10      S        0.83351    0.16687    0.99869    1.000
    S11      S        0.83318    0.16677    0.13667    1.000
    Mo12     Mo       0.16656    0.33342    0.06772    1.000
    S13      S        0.08340    0.41693    0.99877    1.000
    S14      S        0.08331    0.41679    0.13674    1.000
    Mo15     Mo       0.41653    0.33341    0.06745    1.000
    S16      S        0.33311    0.41675    0.99864    1.000
    S17      S        0.33340    0.41674    0.13664    1.000
    Mo18     Mo       0.66677    0.33342    0.06743    1.000
    S19      S        0.58331    0.41679    0.99838    1.000
    S20      S        0.58343    0.41685    0.13598    1.000
    Mo21     Mo       0.91672    0.33351    0.06771    1.000
    S22      S        0.83361    0.41698    0.99866    1.000
    S23      S        0.83319    0.41674    0.13667    1.000
    Mo24     Mo       0.16675    0.58352    0.06781    1.000
    S25      S        0.08354    0.66693    0.99884    1.000
    S26      S        0.08338    0.66686    0.13679    1.000
    Mo27     Mo       0.41669    0.58344    0.06763    1.000
    S28      S        0.33326    0.66680    0.99875    1.000
    S29      S        0.33358    0.66686    0.13671    1.000
    Mo30     Mo       0.66676    0.58361    0.06743    1.000
    S31      S        0.58328    0.66684    0.99854    1.000
    S32      S        0.58346    0.66696    0.13651    1.000
    Mo33     Mo       0.91674    0.58352    0.06773    1.000
    S34      S        0.83359    0.66692    0.99866    1.000
    S35      S        0.83318    0.66675    0.13666    1.000
    Mo36     Mo       0.16674    0.83356    0.06780    1.000
    S37      S        0.08338    0.91678    0.99876    1.000
    S38      S        0.08329    0.91684    0.13673    1.000
    Mo39     Mo       0.41673    0.83352    0.06768    1.000
    S40      S        0.33326    0.91677    0.99875    1.000
    S41      S        0.33358    0.91704    0.13670    1.000
    Mo42     Mo       0.66668    0.83352    0.06754    1.000
    S43      S        0.58325    0.91677    0.99858    1.000
    S44      S        0.58343    0.91685    0.13656    1.000
    Mo45     Mo       0.91670    0.83350    0.06770    1.000
    S46      S        0.83349    0.91694    0.99869    1.000
    S47      S        0.83317    0.91670    0.13666    1.000
    C48      C        0.58732    0.52723    0.28349    1.000
    H49      H        0.50833    0.48769    0.25636    1.000
    H50      H        0.66586    0.56461    0.25607    1.000
    H51      H        0.58854    0.59709    0.30972    1.000
    S52      S        0.58592    0.41877    0.33484    1.000
    C53      C        0.58343    0.30950    0.28369    1.000
    H54      H        0.58272    0.24002    0.31004    1.000
    H55      H        0.50428    0.27167    0.25669    1.000
    H56      H        0.66179    0.34856    0.25612    1.000
