# CIF file generated by openbabel 3.1.0, see https://openbabel.org
data_I
_chemical_name_common ''
_cell_length_a 13.105
_cell_length_b 13.105
_cell_length_c 23.0122
_cell_angle_alpha 90
_cell_angle_beta 90
_cell_angle_gamma 120
loop_
    _atom_site_label
    _atom_site_type_symbol
    _atom_site_fract_x
    _atom_site_fract_y
    _atom_site_fract_z
    _atom_site_occupancy
    Mo0      Mo       0.16326    0.08166    0.06666    1.000
    S1       S        0.07974    0.16469    0.99759    1.000
    S2       S        0.07993    0.16505    0.13559    1.000
    Mo3      Mo       0.41342    0.08180    0.06672    1.000
    S4       S        0.32992    0.16485    0.99766    1.000
    S5       S        0.32991    0.16508    0.13568    1.000
    Mo6      Mo       0.66339    0.08176    0.06670    1.000
    S7       S        0.58009    0.16517    0.99773    1.000
    S8       S        0.58010    0.16515    0.13570    1.000
    Mo9      Mo       0.91324    0.08153    0.06668    1.000
    S10      S        0.83006    0.16510    0.99774    1.000
    S11      S        0.83010    0.16512    0.13562    1.000
    Mo12     Mo       0.16283    0.33148    0.06642    1.000
    S13      S        0.07974    0.41519    0.99759    1.000
    S14      S        0.07993    0.41502    0.13559    1.000
    Mo15     Mo       0.41300    0.33152    0.06655    1.000
    S16      S        0.32964    0.41489    0.99754    1.000
    S17      S        0.32908    0.41460    0.13519    1.000
    Mo18     Mo       0.66325    0.33175    0.06672    1.000
    S19      S        0.57990    0.41505    0.99775    1.000
    S20      S        0.57943    0.41470    0.13565    1.000
    Mo21     Mo       0.91324    0.33185    0.06668    1.000
    S22      S        0.82987    0.41519    0.99774    1.000
    S23      S        0.82984    0.41510    0.13576    1.000
    Mo24     Mo       0.16327    0.58174    0.06666    1.000
    S25      S        0.07990    0.66513    0.99777    1.000
    S26      S        0.08000    0.66508    0.13568    1.000
    Mo27     Mo       0.41300    0.58161    0.06655    1.000
    S28      S        0.32992    0.66520    0.99766    1.000
    S29      S        0.32992    0.66497    0.13568    1.000
    Mo30     Mo       0.66303    0.58158    0.06682    1.000
    S31      S        0.57990    0.66498    0.99775    1.000
    S32      S        0.57943    0.66486    0.13565    1.000
    Mo33     Mo       0.91318    0.58172    0.06678    1.000
    S34      S        0.82977    0.66495    0.99785    1.000
    S35      S        0.82975    0.66494    0.13582    1.000
    Mo36     Mo       0.16341    0.83178    0.06674    1.000
    S37      S        0.07989    0.91491    0.99777    1.000
    S38      S        0.07999    0.91505    0.13569    1.000
    Mo39     Mo       0.41342    0.83176    0.06672    1.000
    S40      S        0.33016    0.91515    0.99776    1.000
    S41      S        0.33017    0.91515    0.13570    1.000
    Mo42     Mo       0.66324    0.83162    0.06673    1.000
    S43      S        0.58009    0.91505    0.99773    1.000
    S44      S        0.58010    0.91508    0.13570    1.000
    Mo45     Mo       0.91318    0.83160    0.06678    1.000
    S46      S        0.82986    0.91482    0.99774    1.000
    S47      S        0.82984    0.91488    0.13577    1.000
    C48      C        0.65334    0.57689    0.29035    1.000
    H49      H        0.65259    0.64492    0.26324    1.000
    H50      H        0.65109    0.50785    0.26286    1.000
    H51      H        0.73323    0.61594    0.31658    1.000
    S52      S        0.52779    0.51468    0.34097    1.000
    C53      C        0.40737    0.45473    0.28750    1.000
    H54      H        0.32482    0.41376    0.31169    1.000
    H55      H        0.41162    0.52487    0.26015    1.000
    H56      H        0.41109    0.38837    0.26029    1.000
