# CIF file generated by openbabel 3.1.0, see https://openbabel.org
data_I
_chemical_name_common ''
_cell_length_a 13.105
_cell_length_b 13.105
_cell_length_c 23.0122
_cell_angle_alpha 90
_cell_angle_beta 90
_cell_angle_gamma 120
loop_
    _atom_site_label
    _atom_site_type_symbol
    _atom_site_fract_x
    _atom_site_fract_y
    _atom_site_fract_z
    _atom_site_occupancy
    Mo0      Mo       0.16743    0.08261    0.06655    1.000
    S1       S        0.08410    0.16596    0.99756    1.000
    S2       S        0.08407    0.16598    0.13550    1.000
    Mo3      Mo       0.41740    0.08264    0.06649    1.000
    S4       S        0.33401    0.16596    0.99752    1.000
    S5       S        0.33414    0.16602    0.13555    1.000
    Mo6      Mo       0.66740    0.08237    0.06650    1.000
    S7       S        0.58396    0.16556    0.99744    1.000
    S8       S        0.58414    0.16589    0.13541    1.000
    Mo9      Mo       0.91737    0.08248    0.06652    1.000
    S10      S        0.83410    0.16581    0.99753    1.000
    S11      S        0.83406    0.16582    0.13551    1.000
    Mo12     Mo       0.16759    0.33267    0.06653    1.000
    S13      S        0.08423    0.41592    0.99753    1.000
    S14      S        0.08422    0.41597    0.13550    1.000
    Mo15     Mo       0.41749    0.33250    0.06648    1.000
    S16      S        0.33434    0.41609    0.99757    1.000
    S17      S        0.33433    0.41588    0.13558    1.000
    Mo18     Mo       0.66764    0.33236    0.06629    1.000
    S19      S        0.58417    0.41572    0.99745    1.000
    S20      S        0.58444    0.41551    0.13523    1.000
    Mo21     Mo       0.91752    0.33250    0.06650    1.000
    S22      S        0.83429    0.41570    0.99734    1.000
    S23      S        0.83414    0.41592    0.13538    1.000
    Mo24     Mo       0.16768    0.58263    0.06650    1.000
    S25      S        0.08449    0.66606    0.99742    1.000
    S26      S        0.08414    0.66587    0.13539    1.000
    Mo27     Mo       0.41767    0.58258    0.06662    1.000
    S28      S        0.33439    0.66586    0.99756    1.000
    S29      S        0.33427    0.66591    0.13558    1.000
    Mo30     Mo       0.66763    0.58241    0.06645    1.000
    S31      S        0.58424    0.66583    0.99760    1.000
    S32      S        0.58440    0.66574    0.13558    1.000
    Mo33     Mo       0.91771    0.58238    0.06626    1.000
    S34      S        0.83432    0.66586    0.99743    1.000
    S35      S        0.83458    0.66561    0.13518    1.000
    Mo36     Mo       0.16739    0.83261    0.06648    1.000
    S37      S        0.08410    0.91604    0.99750    1.000
    S38      S        0.08399    0.91586    0.13553    1.000
    Mo39     Mo       0.41752    0.83250    0.06654    1.000
    S40      S        0.33412    0.91592    0.99755    1.000
    S41      S        0.33407    0.91593    0.13544    1.000
    Mo42     Mo       0.66749    0.83241    0.06661    1.000
    S43      S        0.58415    0.91567    0.99756    1.000
    S44      S        0.58412    0.91577    0.13557    1.000
    Mo45     Mo       0.91754    0.83257    0.06645    1.000
    S46      S        0.83397    0.91574    0.99755    1.000
    S47      S        0.83418    0.91574    0.13556    1.000
    C48      C        0.77102    0.69770    0.29032    1.000
    H49      H        0.74313    0.73085    0.25366    1.000
    H50      H        0.80856    0.64506    0.27432    1.000
    H51      H        0.83745    0.77190    0.31531    1.000
    S52      S        0.64696    0.60997    0.33967    1.000
    C53      C        0.55432    0.48760    0.29035    1.000
    H54      H        0.47913    0.42325    0.31555    1.000
    H55      H        0.52291    0.51815    0.25403    1.000
    H56      H        0.60334    0.44652    0.27386    1.000
